
     RDKit          2D

 20 21  0  0  0  0  0  0  0  0999 V2000
   -4.3431  -11.6791    0.0000 C   0  0  0  0  0  0  0  0  0  0  0  0
   -4.3443  -12.5065    0.0000 C   0  0  0  0  0  0  0  0  0  0  0  0
   -3.6294  -12.9194    0.0000 C   0  0  0  0  0  0  0  0  0  0  0  0
   -2.9130  -12.5060    0.0000 C   0  0  0  0  0  0  0  0  0  0  0  0
   -2.9159  -11.6755    0.0000 C   0  0  0  0  0  0  0  0  0  0  0  0
   -3.6312  -11.2664    0.0000 C   0  0  0  0  0  0  0  0  0  0  0  0
   -5.0577  -11.2668    0.0000 O   0  0  0  0  0  0  0  0  0  0  0  0
   -2.2029  -11.2603    0.0000 O   0  0  0  0  0  0  0  0  0  0  0  0
   -2.1979  -12.9174    0.0000 C   0  0  0  0  0  0  0  0  0  0  0  0
   -2.1966  -13.7424    0.0000 O   0  0  0  0  0  0  0  0  0  0  0  0
   -1.4841  -12.5038    0.0000 C   0  0  0  0  0  0  0  0  0  0  0  0
   -0.7689  -12.9152    0.0000 C   0  0  0  0  0  0  0  0  0  0  0  0
   -0.0551  -12.5015    0.0000 C   0  0  0  0  0  0  0  0  0  0  0  0
    0.6587  -12.9143    0.0000 C   0  0  0  0  0  0  0  0  0  0  0  0
    1.3720  -12.5013    0.0000 C   0  0  0  0  0  0  0  0  0  0  0  0
    1.3712  -11.6755    0.0000 C   0  0  0  0  0  0  0  0  0  0  0  0
    0.6510  -11.2643    0.0000 C   0  0  0  0  0  0  0  0  0  0  0  0
   -0.0594  -11.6795    0.0000 C   0  0  0  0  0  0  0  0  0  0  0  0
    2.0844  -11.2609    0.0000 O   0  0  0  0  0  0  0  0  0  0  0  0
    2.8001  -11.6713    0.0000 C   0  0  0  0  0  0  0  0  0  0  0  0
  9 10  2  0
  2  3  2  0
  9 11  1  0
  5  6  1  0
 11 12  2  0
  6  1  2  0
 12 13  1  0
  1  2  1  0
 13 14  2  0
  1  7  1  0
 14 15  1  0
  3  4  1  0
 15 16  2  0
  5  8  1  0
 16 17  1  0
 17 18  2  0
 18 13  1  0
  4  9  1  0
 16 19  1  0
  4  5  2  0
 19 20  1  0
M  END
>  <Curated_InChIs>  (1) 
InChI=1S/C16H14O4/c1-20-13-6-2-11(3-7-13)4-9-15(18)14-8-5-12(17)10-16(14)19/h2-10,17,19H,1H3

>  <threshold>  (1) 
5

>  <pchembl>  (1) 
4.48, 4.92

>  <Classification>  (1) 
0

>  <source>  (1) 
chembl_28

>  <SMILES>  (1) 
COc1ccc(/C=C/C(=O)c2ccc(O)cc2O)cc1

>  <InChIKey>  (1) 
ADRQFDIWPRFKSP-RUDMXATFSA-N

$$$$

     RDKit          2D

 33 36  0  0  0  0  0  0  0  0999 V2000
   17.1404  -14.4453    0.0000 C   0  0  0  0  0  0  0  0  0  0  0  0
   17.1445  -15.2707    0.0000 C   0  0  0  0  0  0  0  0  0  0  0  0
   17.8503  -14.0367    0.0000 C   0  0  0  0  0  0  0  0  0  0  0  0
   18.5560  -14.4453    0.0000 C   0  0  0  0  0  0  0  0  0  0  0  0
   18.5560  -15.2707    0.0000 C   0  0  0  0  0  0  0  0  0  0  0  0
   17.8503  -15.6793    0.0000 C   0  0  0  0  0  0  0  0  0  0  0  0
   16.3521  -14.1977    0.0000 C   0  0  0  0  0  0  0  0  0  0  0  0
   15.8692  -14.8663    0.0000 O   0  0  0  0  0  0  0  0  0  0  0  0
   16.3645  -15.5225    0.0000 C   0  0  0  0  0  0  0  0  0  0  0  0
   16.1044  -13.4176    0.0000 O   0  0  0  0  0  0  0  0  0  0  0  0
   19.2640  -15.6789    0.0000 N   0  0  0  0  0  0  0  0  0  0  0  0
   19.9714  -15.2699    0.0000 C   0  0  0  0  0  0  0  0  0  0  0  0
   20.6794  -15.6781    0.0000 C   0  0  0  0  0  0  0  0  0  0  0  0
   19.9709  -14.4527    0.0000 O   0  0  0  0  0  0  0  0  0  0  0  0
   21.3869  -15.2691    0.0000 O   0  0  0  0  0  0  0  0  0  0  0  0
   22.0948  -15.6772    0.0000 C   0  0  0  0  0  0  0  0  0  0  0  0
   22.0908  -16.4935    0.0000 C   0  0  0  0  0  0  0  0  0  0  0  0
   22.7979  -16.9016    0.0000 C   0  0  0  0  0  0  0  0  0  0  0  0
   23.5064  -16.4925    0.0000 C   0  0  0  0  0  0  0  0  0  0  0  0
   23.5032  -15.6711    0.0000 C   0  0  0  0  0  0  0  0  0  0  0  0
   22.7955  -15.2667    0.0000 C   0  0  0  0  0  0  0  0  0  0  0  0
   24.2148  -16.8997    0.0000 C   0  0  0  0  0  0  0  0  0  0  0  0
   24.2164  -17.7169    0.0000 O   0  0  0  0  0  0  0  0  0  0  0  0
   24.9218  -16.4898    0.0000 C   0  0  0  0  0  0  0  0  0  0  0  0
   25.6303  -16.8970    0.0000 C   0  0  0  0  0  0  0  0  0  0  0  0
   26.3372  -16.4870    0.0000 C   0  0  0  0  0  0  0  0  0  0  0  0
   27.0421  -16.8969    0.0000 C   0  0  0  0  0  0  0  0  0  0  0  0
   27.7485  -16.4876    0.0000 C   0  0  0  0  0  0  0  0  0  0  0  0
   27.7474  -15.6696    0.0000 C   0  0  0  0  0  0  0  0  0  0  0  0
   27.0339  -15.2625    0.0000 C   0  0  0  0  0  0  0  0  0  0  0  0
   26.3304  -15.6741    0.0000 C   0  0  0  0  0  0  0  0  0  0  0  0
   27.0414  -17.7141    0.0000 F   0  0  0  0  0  0  0  0  0  0  0  0
   25.6198  -15.2706    0.0000 F   0  0  0  0  0  0  0  0  0  0  0  0
  2  1  1  0
  3  1  2  0
  4  3  1  0
  5  4  2  0
  6  2  2  0
  7  1  1  0
  8  7  1  0
  9  2  1  0
 10  7  2  0
  8  9  1  0
  6  5  1  0
  5 11  1  0
 11 12  1  0
 12 13  1  0
 12 14  2  0
 13 15  1  0
 15 16  1  0
 16 17  2  0
 17 18  1  0
 18 19  2  0
 19 20  1  0
 20 21  2  0
 21 16  1  0
 19 22  1  0
 22 23  2  0
 22 24  1  0
 24 25  2  0
 25 26  1  0
 26 27  2  0
 27 28  1  0
 28 29  2  0
 29 30  1  0
 30 31  2  0
 31 26  1  0
 27 32  1  0
 31 33  1  0
M  END
>  <Curated_InChIs>  (2) 
InChI=1S/C25H17F2NO5/c26-21-2-1-3-22(27)20(21)10-11-23(29)15-4-7-18(8-5-15)32-14-24(30)28-17-6-9-19-16(12-17)13-33-25(19)31/h1-12H,13-14H2,(H,28,30)

>  <threshold>  (2) 
5

>  <pchembl>  (2) 
4.96

>  <Classification>  (2) 
0

>  <source>  (2) 
chembl_28

>  <SMILES>  (2) 
O=C(COc1ccc(C(=O)/C=C/c2c(F)cccc2F)cc1)Nc1ccc2c(c1)COC2=O

>  <InChIKey>  (2) 
BDIHMOMPFWOHNY-ZHACJKMWSA-N

$$$$

     RDKit          2D

 28 32  0  0  0  0  0  0  0  0999 V2000
    3.4407  -21.9527    0.0000 C   0  0  0  0  0  0  0  0  0  0  0  0
    3.4395  -22.7722    0.0000 C   0  0  0  0  0  0  0  0  0  0  0  0
    4.1476  -23.1812    0.0000 C   0  0  0  0  0  0  0  0  0  0  0  0
    4.8573  -22.7718    0.0000 C   0  0  0  0  0  0  0  0  0  0  0  0
    4.8544  -21.9491    0.0000 C   0  0  0  0  0  0  0  0  0  0  0  0
    4.1458  -21.5438    0.0000 C   0  0  0  0  0  0  0  0  0  0  0  0
    5.5633  -23.1784    0.0000 N   0  0  0  0  0  0  0  0  0  0  0  0
    5.5626  -23.9966    0.0000 C   0  0  0  0  0  0  0  0  0  0  0  0
    6.2669  -24.4040    0.0000 C   0  0  0  0  0  0  0  0  0  0  0  0
    6.9764  -23.9978    0.0000 N   0  0  0  0  0  0  0  0  0  0  0  0
    6.9771  -23.1796    0.0000 C   0  0  0  0  0  0  0  0  0  0  0  0
    6.2683  -22.7677    0.0000 C   0  0  0  0  0  0  0  0  0  0  0  0
    4.1474  -23.9984    0.0000 F   0  0  0  0  0  0  0  0  0  0  0  0
    7.6832  -24.4079    0.0000 C   0  0  0  0  0  0  0  0  0  0  0  0
    8.3918  -24.0009    0.0000 C   0  0  0  0  0  0  0  0  0  0  0  0
    9.1369  -24.3333    0.0000 N   0  0  0  0  0  0  0  0  0  0  0  0
    9.6850  -23.7272    0.0000 C   0  0  0  0  0  0  0  0  0  0  0  0
    9.2780  -23.0186    0.0000 S   0  0  0  0  0  0  0  0  0  0  0  0
    8.4783  -23.1868    0.0000 C   0  0  0  0  0  0  0  0  0  0  0  0
   10.4976  -23.8145    0.0000 C   0  0  0  0  0  0  0  0  0  0  0  0
   10.8242  -24.5643    0.0000 C   0  0  0  0  0  0  0  0  0  0  0  0
   11.7838  -23.2412    0.0000 C   0  0  0  0  0  0  0  0  0  0  0  0
   10.9730  -23.1574    0.0000 C   0  0  0  0  0  0  0  0  0  0  0  0
   12.1186  -23.9913    0.0000 C   0  0  0  0  0  0  0  0  0  0  0  0
   11.6403  -24.6532    0.0000 C   0  0  0  0  0  0  0  0  0  0  0  0
   12.1220  -25.3126    0.0000 O   0  0  0  0  0  0  0  0  0  0  0  0
   12.8981  -25.0583    0.0000 C   0  0  0  0  0  0  0  0  0  0  0  0
   12.8959  -24.2417    0.0000 O   0  0  0  0  0  0  0  0  0  0  0  0
  1  2  2  0
  2  3  1  0
  3  4  2  0
  4  5  1  0
  5  6  2  0
  6  1  1  0
  7  8  1  0
  7 12  1  0
  8  9  1  0
  9 10  1  0
 10 11  1  0
 11 12  1  0
  4  7  1  0
  3 13  1  0
 10 14  1  0
 14 15  1  0
 15 16  1  0
 16 17  2  0
 17 18  1  0
 18 19  1  0
 19 15  2  0
 17 20  1  0
 20 21  2  0
 21 25  1  0
 24 22  1  0
 22 23  2  0
 23 20  1  0
 24 25  2  0
 25 26  1  0
 26 27  1  0
 27 28  1  0
 28 24  1  0
M  END
>  <Curated_InChIs>  (3) 
InChI=1S/C21H20FN3O2S/c22-17-3-1-2-4-18(17)25-9-7-24(8-10-25)12-16-13-28-21(23-16)15-5-6-19-20(11-15)27-14-26-19/h1-6,11,13H,7-10,12,14H2

>  <threshold>  (3) 
5

>  <pchembl>  (3) 
4.95

>  <Classification>  (3) 
0

>  <source>  (3) 
chembl_28

>  <SMILES>  (3) 
Fc1ccccc1N1CCN(Cc2csc(-c3ccc4c(c3)OCO4)n2)CC1

>  <InChIKey>  (3) 
CIXGFQNLXZKQAX-UHFFFAOYSA-N

$$$$

     RDKit          2D

 31 35  0  0  0  0  0  0  0  0999 V2000
   15.8752   -3.5390    0.0000 O   0  0  0  0  0  0  0  0  0  0  0  0
   15.4689   -2.8307    0.0000 C   0  0  0  0  0  0  0  0  0  0  0  0
   14.6517   -2.8307    0.0000 C   0  0  0  0  0  0  0  0  0  0  0  0
   14.2408   -3.5390    0.0000 O   0  0  0  0  0  0  0  0  0  0  0  0
   15.4689   -4.2428    0.0000 C   0  0  0  0  0  0  0  0  0  0  0  0
   14.6535   -4.2402    0.0000 C   0  0  0  0  0  0  0  0  0  0  0  0
   14.2454   -4.9440    0.0000 C   0  0  0  0  0  0  0  0  0  0  0  0
   14.6515   -5.6508    0.0000 C   0  0  0  0  0  0  0  0  0  0  0  0
   15.4700   -5.6494    0.0000 C   0  0  0  0  0  0  0  0  0  0  0  0
   15.8744   -4.9450    0.0000 C   0  0  0  0  0  0  0  0  0  0  0  0
   15.8800   -6.3562    0.0000 C   0  0  0  0  0  0  0  0  0  0  0  0
   15.4729   -7.0648    0.0000 O   0  0  0  0  0  0  0  0  0  0  0  0
   16.6972   -6.3546    0.0000 C   0  0  0  0  0  0  0  0  0  0  0  0
   17.1021   -7.0620    0.0000 C   0  0  0  0  0  0  0  0  0  0  0  0
   17.9157   -7.0623    0.0000 C   0  0  0  0  0  0  0  0  0  0  0  0
   18.3267   -6.3556    0.0000 N   0  0  0  0  0  0  0  0  0  0  0  0
   17.9179   -5.6469    0.0000 C   0  0  0  0  0  0  0  0  0  0  0  0
   17.0981   -5.6450    0.0000 C   0  0  0  0  0  0  0  0  0  0  0  0
   19.1439   -6.3570    0.0000 C   0  0  0  0  0  0  0  0  0  0  0  0
   19.5512   -7.0654    0.0000 O   0  0  0  0  0  0  0  0  0  0  0  0
   19.5537   -5.6500    0.0000 C   0  0  0  0  0  0  0  0  0  0  0  0
   20.3680   -5.6531    0.0000 C   0  0  0  0  0  0  0  0  0  0  0  0
   20.7777   -4.9469    0.0000 C   0  0  0  0  0  0  0  0  0  0  0  0
   20.3703   -4.2375    0.0000 C   0  0  0  0  0  0  0  0  0  0  0  0
   19.5489   -4.2387    0.0000 C   0  0  0  0  0  0  0  0  0  0  0  0
   19.1428   -4.9455    0.0000 C   0  0  0  0  0  0  0  0  0  0  0  0
   20.7765   -3.5335    0.0000 N   0  0  0  0  0  0  0  0  0  0  0  0
   21.5892   -3.4484    0.0000 N   0  0  0  0  0  0  0  0  0  0  0  0
   21.7595   -2.6491    0.0000 C   0  0  0  0  0  0  0  0  0  0  0  0
   21.0519   -2.2402    0.0000 C   0  0  0  0  0  0  0  0  0  0  0  0
   20.4445   -2.7869    0.0000 C   0  0  0  0  0  0  0  0  0  0  0  0
  6  4  1  0
  5  1  1  0
  1  2  1  0
  2  3  1  0
  3  4  1  0
  5  6  2  0
  6  7  1  0
  7  8  2  0
  8  9  1  0
  9 10  2  0
 10  5  1  0
  9 11  1  0
 11 12  2  0
 11 13  1  0
 13 14  1  0
 13 18  1  0
 14 15  1  0
 15 16  1  0
 16 17  1  0
 17 18  1  0
 16 19  1  0
 19 20  2  0
 19 21  1  0
 21 22  2  0
 22 23  1  0
 23 24  2  0
 24 25  1  0
 25 26  2  0
 26 21  1  0
 27 28  1  0
 28 29  2  0
 29 30  1  0
 30 31  2  0
 31 27  1  0
 24 27  1  0
M  END
>  <Curated_InChIs>  (4) 
InChI=1S/C24H23N3O4/c28-23(19-4-7-21-22(16-19)31-15-14-30-21)17-8-12-26(13-9-17)24(29)18-2-5-20(6-3-18)27-11-1-10-25-27/h1-7,10-11,16-17H,8-9,12-15H2

>  <threshold>  (4) 
5

>  <pchembl>  (4) 
4.98

>  <Classification>  (4) 
0

>  <source>  (4) 
chembl_28

>  <SMILES>  (4) 
O=C(c1ccc2c(c1)OCCO2)C1CCN(C(=O)c2ccc(-n3cccn3)cc2)CC1

>  <InChIKey>  (4) 
COYZZJWDMBACOZ-UHFFFAOYSA-N

$$$$

     RDKit          2D

 31 33  0  0  0  0  0  0  0  0999 V2000
   -3.0598   -8.4000    0.0000 C   0  0  0  0  0  0  0  0  0  0  0  0
   -3.0609   -9.2273    0.0000 C   0  0  0  0  0  0  0  0  0  0  0  0
   -2.3461   -9.6402    0.0000 C   0  0  0  0  0  0  0  0  0  0  0  0
   -2.3479   -7.9872    0.0000 C   0  0  0  0  0  0  0  0  0  0  0  0
   -2.3463  -10.4652    0.0000 O   0  0  0  0  0  0  0  0  0  0  0  0
   -3.7743   -7.9876    0.0000 O   0  0  0  0  0  0  0  0  0  0  0  0
   -1.6325   -8.3963    0.0000 C   0  0  0  0  0  0  0  0  0  0  0  0
   -1.6291   -9.2294    0.0000 C   0  0  0  0  0  0  0  0  0  0  0  0
   -0.9099   -9.6407    0.0000 C   0  0  0  0  0  0  0  0  0  0  0  0
   -0.1895   -9.2235    0.0000 C   0  0  0  0  0  0  0  0  0  0  0  0
   -0.1930   -8.3904    0.0000 C   0  0  0  0  0  0  0  0  0  0  0  0
   -0.9168   -7.9745    0.0000 O   0  0  0  0  0  0  0  0  0  0  0  0
   -0.9077  -10.4657    0.0000 O   0  0  0  0  0  0  0  0  0  0  0  0
   -2.3504   -7.1622    0.0000 C   0  0  0  0  0  0  0  0  0  0  0  0
   -3.0661   -6.7518    0.0000 C   0  0  0  0  0  0  0  0  0  0  0  0
   -3.0685   -5.9268    0.0000 C   0  0  0  0  0  0  0  0  0  0  0  0
   -3.7842   -5.5165    0.0000 C   0  0  0  0  0  0  0  0  0  0  0  0
   -2.3553   -5.5122    0.0000 C   0  0  0  0  0  0  0  0  0  0  0  0
    0.5202   -7.9757    0.0000 C   0  0  0  0  0  0  0  0  0  0  0  0
    1.2352   -8.3881    0.0000 C   0  0  0  0  0  0  0  0  0  0  0  0
    1.9479   -7.9741    0.0000 C   0  0  0  0  0  0  0  0  0  0  0  0
    1.9458   -7.1482    0.0000 C   0  0  0  0  0  0  0  0  0  0  0  0
    1.2250   -6.7381    0.0000 C   0  0  0  0  0  0  0  0  0  0  0  0
    0.5153   -7.1544    0.0000 C   0  0  0  0  0  0  0  0  0  0  0  0
    2.6635   -8.3847    0.0000 O   0  0  0  0  0  0  0  0  0  0  0  0
    1.2196   -5.9131    0.0000 O   0  0  0  0  0  0  0  0  0  0  0  0
   -3.7867   -4.6915    0.0000 C   0  0  0  0  0  0  0  0  0  0  0  0
   -4.5024   -4.2811    0.0000 C   0  0  0  0  0  0  0  0  0  0  0  0
   -4.5049   -3.4561    0.0000 C   0  0  0  0  0  0  0  0  0  0  0  0
   -5.2128   -3.0457    0.0000 C   0  0  0  0  0  0  0  0  0  0  0  0
   -3.7916   -3.0415    0.0000 C   0  0  0  0  0  0  0  0  0  0  0  0
 14 15  1  0
  3  8  2  0
 15 16  2  0
  1  2  2  0
 16 17  1  0
  7  4  2  0
 16 18  1  0
  4  1  1  0
 11 19  1  6
 19 20  2  0
  3  5  1  0
 20 21  1  0
  7 12  1  0
 21 22  2  0
  8  9  1  0
 22 23  1  0
  9 10  1  0
 23 24  2  0
 24 19  1  0
 10 11  1  0
 21 25  1  0
 11 12  1  0
 23 26  1  0
  2  3  1  0
 17 27  1  0
  9 13  2  0
 27 28  1  0
  1  6  1  0
 28 29  2  3
  4 14  1  0
 29 30  1  0
  7  8  1  0
 29 31  1  0
M  END
>  <Curated_InChIs>  (5) 
InChI=1S/C25H28O6/c1-14(2)5-4-6-15(3)7-8-19-20(28)12-21(29)24-22(30)13-23(31-25(19)24)16-9-17(26)11-18(27)10-16/h5,7,9-12,23,26-29H,4,6,8,13H2,1-3H3

>  <threshold>  (5) 
5

>  <pchembl>  (5) 
4.81

>  <Classification>  (5) 
0

>  <source>  (5) 
chembl_28

>  <SMILES>  (5) 
CC(C)=CCC/C(C)=C/Cc1c(O)cc(O)c2c1O[C@H](c1cc(O)cc(O)c1)CC2=O

>  <InChIKey>  (5) 
CUAHQWHCZQIDAM-KETROQBRSA-N

$$$$

     RDKit          2D

 32 36  0  0  0  0  0  0  0  0999 V2000
    8.4484  -17.9452    0.0000 C   0  0  0  0  0  0  0  0  0  0  0  0
    8.4484  -18.7624    0.0000 C   0  0  0  0  0  0  0  0  0  0  0  0
    9.1537  -19.1668    0.0000 O   0  0  0  0  0  0  0  0  0  0  0  0
    9.1537  -17.5325    0.0000 C   0  0  0  0  0  0  0  0  0  0  0  0
    9.8590  -17.9452    0.0000 C   0  0  0  0  0  0  0  0  0  0  0  0
    9.8574  -18.7606    0.0000 C   0  0  0  0  0  0  0  0  0  0  0  0
   10.5616  -19.1679    0.0000 C   0  0  0  0  0  0  0  0  0  0  0  0
   11.2679  -18.7609    0.0000 C   0  0  0  0  0  0  0  0  0  0  0  0
   11.2656  -17.9424    0.0000 C   0  0  0  0  0  0  0  0  0  0  0  0
   10.5608  -17.5388    0.0000 C   0  0  0  0  0  0  0  0  0  0  0  0
    9.1537  -16.7153    0.0000 O   0  0  0  0  0  0  0  0  0  0  0  0
    7.7395  -17.5387    0.0000 O   0  0  0  0  0  0  0  0  0  0  0  0
    7.0330  -17.9493    0.0000 C   0  0  0  0  0  0  0  0  0  0  0  0
    6.3241  -17.5428    0.0000 C   0  0  0  0  0  0  0  0  0  0  0  0
    5.6176  -17.9535    0.0000 N   0  0  0  0  0  0  0  0  0  0  0  0
    6.3217  -16.7256    0.0000 O   0  0  0  0  0  0  0  0  0  0  0  0
    4.9087  -17.5470    0.0000 C   0  0  0  0  0  0  0  0  0  0  0  0
    4.9105  -16.7308    0.0000 C   0  0  0  0  0  0  0  0  0  0  0  0
    4.2024  -16.3244    0.0000 C   0  0  0  0  0  0  0  0  0  0  0  0
    4.2086  -17.9592    0.0000 C   0  0  0  0  0  0  0  0  0  0  0  0
    3.5000  -17.5565    0.0000 C   0  0  0  0  0  0  0  0  0  0  0  0
    3.4913  -16.7343    0.0000 C   0  0  0  0  0  0  0  0  0  0  0  0
    2.7067  -16.4884    0.0000 C   0  0  0  0  0  0  0  0  0  0  0  0
    2.2303  -17.1587    0.0000 O   0  0  0  0  0  0  0  0  0  0  0  0
    2.7207  -17.8188    0.0000 C   0  0  0  0  0  0  0  0  0  0  0  0
    2.4460  -15.7139    0.0000 O   0  0  0  0  0  0  0  0  0  0  0  0
    7.7423  -19.1725    0.0000 C   0  0  0  0  0  0  0  0  0  0  0  0
    7.0337  -18.7632    0.0000 C   0  0  0  0  0  0  0  0  0  0  0  0
    6.3271  -19.1721    0.0000 C   0  0  0  0  0  0  0  0  0  0  0  0
    6.3278  -19.9902    0.0000 C   0  0  0  0  0  0  0  0  0  0  0  0
    7.0411  -20.3976    0.0000 C   0  0  0  0  0  0  0  0  0  0  0  0
    7.7448  -19.9863    0.0000 C   0  0  0  0  0  0  0  0  0  0  0  0
  1  2  2  0
  1  4  1  0
  2  3  1  0
  3  6  1  0
  5  4  1  0
  5  6  2  0
  6  7  1  0
  7  8  2  0
  8  9  1  0
  9 10  2  0
 10  5  1  0
  4 11  2  0
  1 12  1  0
 12 13  1  0
 13 14  1  0
 14 15  1  0
 14 16  2  0
 15 17  1  0
 17 18  2  0
 18 19  1  0
 19 22  2  0
 21 20  2  0
 20 17  1  0
 21 22  1  0
 22 23  1  0
 23 24  1  0
 24 25  1  0
 25 21  1  0
 23 26  2  0
 27 28  2  0
 28 29  1  0
 29 30  2  0
 30 31  1  0
 31 32  2  0
 32 27  1  0
  2 27  1  0
M  END
>  <Curated_InChIs>  (6) 
InChI=1S/C25H17NO6/c27-21(26-17-10-11-18-16(12-17)13-31-25(18)29)14-30-24-22(28)19-8-4-5-9-20(19)32-23(24)15-6-2-1-3-7-15/h1-12H,13-14H2,(H,26,27)

>  <threshold>  (6) 
5

>  <pchembl>  (6) 
4.88

>  <Classification>  (6) 
0

>  <source>  (6) 
chembl_28

>  <SMILES>  (6) 
O=C(COc1c(-c2ccccc2)oc2ccccc2c1=O)Nc1ccc2c(c1)COC2=O

>  <InChIKey>  (6) 
CWWSDSMEMDBKEH-UHFFFAOYSA-N

$$$$

     RDKit          2D

 24 25  0  0  0  0  0  0  0  0999 V2000
   -0.2046  -13.6430    0.0000 C   0  0  0  0  0  0  0  0  0  0  0  0
   -0.9191  -13.2305    0.0000 C   0  0  0  0  0  0  0  0  0  0  0  0
   -0.9191  -12.4055    0.0000 C   0  0  0  0  0  0  0  0  0  0  0  0
   -0.2046  -11.9930    0.0000 C   0  0  0  0  0  0  0  0  0  0  0  0
    0.5098  -12.4055    0.0000 C   0  0  0  0  0  0  0  0  0  0  0  0
    0.5098  -13.2305    0.0000 C   0  0  0  0  0  0  0  0  0  0  0  0
   -0.2046  -14.4680    0.0000 O   0  0  0  0  0  0  0  0  0  0  0  0
   -0.2046  -11.1680    0.0000 C   0  0  0  0  0  0  0  0  0  0  0  0
    0.5098  -10.7555    0.0000 C   0  0  0  0  0  0  0  0  0  0  0  0
    0.5098   -9.9305    0.0000 N   0  0  0  0  0  0  0  0  0  0  0  0
   -0.2046   -9.5180    0.0000 C   0  0  0  0  0  0  0  0  0  0  0  0
   -0.2046   -8.6930    0.0000 C   0  0  0  0  0  0  0  0  0  0  0  0
   -0.9191   -9.9305    0.0000 O   0  0  0  0  0  0  0  0  0  0  0  0
   -0.9191   -8.2805    0.0000 C   0  0  0  0  0  0  0  0  0  0  0  0
   -0.9191   -7.4555    0.0000 C   0  0  0  0  0  0  0  0  0  0  0  0
   -1.6336   -7.0430    0.0000 C   0  0  0  0  0  0  0  0  0  0  0  0
   -1.6336   -6.2180    0.0000 C   0  0  0  0  0  0  0  0  0  0  0  0
   -0.9191   -5.8055    0.0000 C   0  0  0  0  0  0  0  0  0  0  0  0
   -0.2046   -6.2180    0.0000 C   0  0  0  0  0  0  0  0  0  0  0  0
   -0.2046   -7.0430    0.0000 C   0  0  0  0  0  0  0  0  0  0  0  0
    0.5098   -8.2805    0.0000 O   0  0  0  0  0  0  0  0  0  0  0  0
    0.5098   -7.4555    0.0000 C   0  0  0  0  0  0  0  0  0  0  0  0
    0.5098   -5.8055    0.0000 O   0  0  0  0  0  0  0  0  0  0  0  0
   -0.9191   -4.9805    0.0000 O   0  0  0  0  0  0  0  0  0  0  0  0
 11 12  1  0
  6  1  2  0
 11 13  2  0
  1  2  1  0
 12 14  2  0
  1  7  1  0
 14 15  1  0
  3  4  1  0
 15 16  2  0
  4  8  1  0
 16 17  1  0
 17 18  2  0
  8  9  2  0
 18 19  1  0
  4  5  2  0
 19 20  2  0
 20 15  1  0
  9 10  1  0
 12 21  1  0
  2  3  2  0
 21 22  1  0
 10 11  1  0
 19 23  1  0
  5  6  1  0
 18 24  1  0
M  END
>  <Curated_InChIs>  (7) 
InChI=1S/C18H17NO5/c1-24-17(11-13-4-7-15(21)16(22)10-13)18(23)19-9-8-12-2-5-14(20)6-3-12/h2-11,20-22H,1H3,(H,19,23)

>  <threshold>  (7) 
5

>  <pchembl>  (7) 
4.73

>  <Classification>  (7) 
0

>  <source>  (7) 
chembl_28

>  <SMILES>  (7) 
CO/C(=C\c1ccc(O)c(O)c1)C(=O)N/C=C/c1ccc(O)cc1

>  <InChIKey>  (7) 
CYLIDDWGNZLNAO-JMAVEDQASA-N

$$$$

     RDKit          2D

 30 34  0  0  0  0  0  0  0  0999 V2000
    2.8092   -3.3595    0.0000 C   0  0  0  0  0  0  0  0  0  0  0  0
    2.8081   -4.1791    0.0000 C   0  0  0  0  0  0  0  0  0  0  0  0
    3.5161   -4.5880    0.0000 C   0  0  0  0  0  0  0  0  0  0  0  0
    3.5143   -2.9507    0.0000 C   0  0  0  0  0  0  0  0  0  0  0  0
    4.2230   -3.3559    0.0000 C   0  0  0  0  0  0  0  0  0  0  0  0
    4.2237   -4.1749    0.0000 C   0  0  0  0  0  0  0  0  0  0  0  0
    4.9323   -4.5820    0.0000 C   0  0  0  0  0  0  0  0  0  0  0  0
    5.6405   -4.1712    0.0000 C   0  0  0  0  0  0  0  0  0  0  0  0
    5.6358   -3.3491    0.0000 C   0  0  0  0  0  0  0  0  0  0  0  0
    4.9267   -2.9457    0.0000 N   0  0  0  0  0  0  0  0  0  0  0  0
    6.3380   -2.9379    0.0000 C   0  0  0  0  0  0  0  0  0  0  0  0
    7.0485   -3.3439    0.0000 C   0  0  0  0  0  0  0  0  0  0  0  0
    7.7532   -2.9317    0.0000 N   0  0  0  0  0  0  0  0  0  0  0  0
    7.7487   -2.1136    0.0000 C   0  0  0  0  0  0  0  0  0  0  0  0
    7.0335   -1.7095    0.0000 C   0  0  0  0  0  0  0  0  0  0  0  0
    6.3317   -2.1241    0.0000 C   0  0  0  0  0  0  0  0  0  0  0  0
    4.9339   -5.3992    0.0000 C   0  0  0  0  0  0  0  0  0  0  0  0
    4.2271   -5.8093    0.0000 O   0  0  0  0  0  0  0  0  0  0  0  0
    5.6425   -5.8063    0.0000 N   0  0  0  0  0  0  0  0  0  0  0  0
    5.6416   -6.6207    0.0000 C   0  0  0  0  0  0  0  0  0  0  0  0
    6.3461   -7.0277    0.0000 C   0  0  0  0  0  0  0  0  0  0  0  0
    7.0554   -6.6212    0.0000 N   0  0  0  0  0  0  0  0  0  0  0  0
    7.0556   -5.8030    0.0000 C   0  0  0  0  0  0  0  0  0  0  0  0
    6.3466   -5.3915    0.0000 C   0  0  0  0  0  0  0  0  0  0  0  0
    7.7624   -7.0310    0.0000 C   0  0  0  0  0  0  0  0  0  0  0  0
    8.4708   -6.6236    0.0000 C   0  0  0  0  0  0  0  0  0  0  0  0
    9.2166   -6.9529    0.0000 S   0  0  0  0  0  0  0  0  0  0  0  0
    9.7644   -6.3466    0.0000 C   0  0  0  0  0  0  0  0  0  0  0  0
    9.3570   -5.6381    0.0000 C   0  0  0  0  0  0  0  0  0  0  0  0
    8.5574   -5.8068    0.0000 C   0  0  0  0  0  0  0  0  0  0  0  0
  1  2  2  0
  2  3  1  0
  3  6  2  0
  5  4  2  0
  4  1  1  0
  5  6  1  0
  6  7  1  0
  7  8  2  0
  8  9  1  0
  9 10  2  0
 10  5  1  0
 11 12  2  0
 12 13  1  0
 13 14  2  0
 14 15  1  0
 15 16  2  0
 16 11  1  0
  9 11  1  0
  7 17  1  0
 17 18  2  0
 17 19  1  0
 19 20  1  0
 19 24  1  0
 20 21  1  0
 21 22  1  0
 22 23  1  0
 23 24  1  0
 22 25  1  0
 25 26  1  0
 26 27  1  0
 27 28  1  0
 28 29  2  0
 29 30  1  0
 30 26  2  0
M  END
>  <Curated_InChIs>  (8) 
InChI=1S/C24H22N4OS/c29-24(28-12-10-27(11-13-28)17-19-6-4-14-30-19)21-15-23(18-5-3-9-25-16-18)26-22-8-2-1-7-20(21)22/h1-9,14-16H,10-13,17H2

>  <threshold>  (8) 
5

>  <pchembl>  (8) 
4.8

>  <Classification>  (8) 
0

>  <source>  (8) 
chembl_28

>  <SMILES>  (8) 
O=C(c1cc(-c2cccnc2)nc2ccccc12)N1CCN(Cc2cccs2)CC1

>  <InChIKey>  (8) 
DTLVZKOZZDRHEB-UHFFFAOYSA-N

$$$$

     RDKit          2D

 35 39  0  0  0  0  0  0  0  0999 V2000
   -0.4386   -2.8743    0.0000 O   0  0  0  0  0  0  0  0  0  0  0  0
   -1.0004   -0.1836    0.0000 N   0  0  0  0  0  0  0  0  0  0  0  0
   -1.6679   -0.6686    0.0000 N   0  0  0  0  0  0  0  0  0  0  0  0
    0.7175   -2.0344    0.0000 N   0  0  0  0  0  0  0  0  0  0  0  0
    2.3584   -1.8619    0.0000 N   0  0  0  0  0  0  0  0  0  0  0  0
   -2.0472   -3.5417    0.0000 N   0  0  0  0  0  0  0  0  0  0  0  0
    5.6035   -5.1129    0.0000 N   0  0  0  0  0  0  0  0  0  0  0  0
   -0.5879   -1.4532    0.0000 C   0  0  0  0  0  0  0  0  0  0  0  0
   -1.4129   -1.4532    0.0000 C   0  0  0  0  0  0  0  0  0  0  0  0
   -0.1030   -2.1206    0.0000 C   0  0  0  0  0  0  0  0  0  0  0  0
   -0.3330   -0.6686    0.0000 C   0  0  0  0  0  0  0  0  0  0  0  0
   -1.8978   -2.1206    0.0000 C   0  0  0  0  0  0  0  0  0  0  0  0
   -1.0004    0.6414    0.0000 C   0  0  0  0  0  0  0  0  0  0  0  0
   -1.5623   -2.8743    0.0000 C   0  0  0  0  0  0  0  0  0  0  0  0
   -2.7183   -2.0344    0.0000 C   0  0  0  0  0  0  0  0  0  0  0  0
    1.0530   -1.2807    0.0000 C   0  0  0  0  0  0  0  0  0  0  0  0
    1.2024   -2.7018    0.0000 C   0  0  0  0  0  0  0  0  0  0  0  0
   -1.7149    1.0539    0.0000 C   0  0  0  0  0  0  0  0  0  0  0  0
    1.8735   -1.1945    0.0000 C   0  0  0  0  0  0  0  0  0  0  0  0
    2.0229   -2.6156    0.0000 C   0  0  0  0  0  0  0  0  0  0  0  0
   -3.2033   -2.7018    0.0000 C   0  0  0  0  0  0  0  0  0  0  0  0
    3.1789   -1.7757    0.0000 C   0  0  0  0  0  0  0  0  0  0  0  0
   -2.8677   -3.4555    0.0000 C   0  0  0  0  0  0  0  0  0  0  0  0
    3.6638   -2.4431    0.0000 C   0  0  0  0  0  0  0  0  0  0  0  0
   -2.4294    0.6414    0.0000 C   0  0  0  0  0  0  0  0  0  0  0  0
   -1.7149    1.8789    0.0000 C   0  0  0  0  0  0  0  0  0  0  0  0
    4.4843   -2.3569    0.0000 C   0  0  0  0  0  0  0  0  0  0  0  0
    3.3283   -3.1968    0.0000 C   0  0  0  0  0  0  0  0  0  0  0  0
   -3.1438    1.0539    0.0000 C   0  0  0  0  0  0  0  0  0  0  0  0
   -2.4294    2.2914    0.0000 C   0  0  0  0  0  0  0  0  0  0  0  0
    4.6337   -3.7780    0.0000 C   0  0  0  0  0  0  0  0  0  0  0  0
    4.9692   -3.0243    0.0000 C   0  0  0  0  0  0  0  0  0  0  0  0
    3.8132   -3.8642    0.0000 C   0  0  0  0  0  0  0  0  0  0  0  0
   -3.1438    1.8789    0.0000 C   0  0  0  0  0  0  0  0  0  0  0  0
    5.1186   -4.4454    0.0000 C   0  0  0  0  0  0  0  0  0  0  0  0
  1 10  2  0
  2  3  1  0
  2 11  1  0
  2 13  1  0
  3  9  2  0
  4 10  1  0
  4 16  1  0
  4 17  1  0
  5 19  1  0
  5 20  1  0
  5 22  1  0
  6 14  2  0
  6 23  1  0
  7 35  3  0
  8  9  1  0
  8 10  1  0
  8 11  2  0
  9 12  1  0
 12 14  1  0
 12 15  2  0
 13 18  1  0
 15 21  1  0
 16 19  1  0
 17 20  1  0
 18 25  2  0
 18 26  1  0
 21 23  2  0
 22 24  1  0
 24 27  2  0
 24 28  1  0
 25 29  1  0
 26 30  2  0
 27 32  1  0
 28 33  2  0
 29 34  2  0
 30 34  1  0
 31 32  2  0
 31 33  1  0
 31 35  1  0
M  END
>  <Curated_InChIs>  (9) 
InChI=1S/C28H26N6O/c29-17-22-8-10-24(11-9-22)19-32-13-15-33(16-14-32)28(35)26-21-34(20-23-5-2-1-3-6-23)31-27(26)25-7-4-12-30-18-25/h1-12,18,21H,13-16,19-20H2

>  <threshold>  (9) 
5

>  <pchembl>  (9) 
4.81

>  <Classification>  (9) 
0

>  <source>  (9) 
chembl_28

>  <SMILES>  (9) 
N#Cc1ccc(CN2CCN(C(=O)c3cn(Cc4ccccc4)nc3-c3cccnc3)CC2)cc1

>  <InChIKey>  (9) 
FGQRUJJWJBETIK-UHFFFAOYSA-N

$$$$

     RDKit          2D

 30 32  0  0  0  0  0  0  0  0999 V2000
   -1.9487   -0.5160    0.0000 C   0  0  0  0  0  0  0  0  0  0  0  0
   -1.9487    0.3084    0.0000 C   0  0  0  0  0  0  0  0  0  0  0  0
   -2.6642    0.7248    0.0000 C   0  0  0  0  0  0  0  0  0  0  0  0
   -1.2292    0.7248    0.0000 C   0  0  0  0  0  0  0  0  0  0  0  0
   -1.2292    1.5492    0.0000 C   0  0  0  0  0  0  0  0  0  0  0  0
   -1.9487    1.9656    0.0000 C   0  0  0  0  0  0  0  0  0  0  0  0
   -1.9487    2.7901    0.0000 C   0  0  0  0  0  0  0  0  0  0  0  0
   -2.6642    3.2064    0.0000 C   0  0  0  0  0  0  0  0  0  0  0  0
   -1.2292    3.2064    0.0000 C   0  0  0  0  0  0  0  0  0  0  0  0
   -2.6628   -0.9283    0.0000 C   0  0  0  0  0  0  0  0  0  0  0  0
   -2.6628   -1.7527    0.0000 C   0  0  0  0  0  0  0  0  0  0  0  0
   -3.3783   -2.1651    0.0000 C   0  0  0  0  0  0  0  0  0  0  0  0
   -3.3795   -2.9919    0.0000 C   0  0  0  0  0  0  0  0  0  0  0  0
   -2.6651   -3.4045    0.0000 C   0  0  0  0  0  0  0  0  0  0  0  0
   -1.9520   -2.1615    0.0000 C   0  0  0  0  0  0  0  0  0  0  0  0
   -1.9486   -2.9894    0.0000 C   0  0  0  0  0  0  0  0  0  0  0  0
   -1.2338   -3.3981    0.0000 C   0  0  0  0  0  0  0  0  0  0  0  0
   -0.5179   -2.9835    0.0000 C   0  0  0  0  0  0  0  0  0  0  0  0
   -0.5213   -2.1556    0.0000 C   0  0  0  0  0  0  0  0  0  0  0  0
   -1.2406   -1.7423    0.0000 O   0  0  0  0  0  0  0  0  0  0  0  0
    0.1914   -1.7412    0.0000 C   0  0  0  0  0  0  0  0  0  0  0  0
    0.9056   -2.1536    0.0000 C   0  0  0  0  0  0  0  0  0  0  0  0
    1.6178   -1.7399    0.0000 C   0  0  0  0  0  0  0  0  0  0  0  0
    1.6157   -0.9146    0.0000 C   0  0  0  0  0  0  0  0  0  0  0  0
    0.8954   -0.5048    0.0000 C   0  0  0  0  0  0  0  0  0  0  0  0
    0.1862   -0.9209    0.0000 C   0  0  0  0  0  0  0  0  0  0  0  0
   -4.0924   -1.7531    0.0000 O   0  0  0  0  0  0  0  0  0  0  0  0
   -2.6646   -4.2290    0.0000 O   0  0  0  0  0  0  0  0  0  0  0  0
   -1.2316   -4.2226    0.0000 O   0  0  0  0  0  0  0  0  0  0  0  0
    2.3278   -0.4993    0.0000 O   0  0  0  0  0  0  0  0  0  0  0  0
 15 16  1  0
  5  6  1  0
  6  7  2  3
  7  8  1  0
  7  9  1  0
  1 10  1  0
 15 20  1  0
 16 17  1  0
 17 18  1  0
 18 19  1  0
 19 20  1  0
  1  2  2  0
 19 21  1  6
 10 11  1  0
 21 22  2  0
  2  3  1  0
 22 23  1  0
  2  4  1  0
 23 24  2  0
 12 13  2  0
 24 25  1  0
  4  5  1  0
 25 26  2  0
 26 21  1  0
 13 14  1  0
 12 27  1  0
 14 16  2  0
 14 28  1  0
 15 11  2  0
 17 29  2  0
 11 12  1  0
 24 30  1  0
M  END
>  <Curated_InChIs>  (10) 
InChI=1S/C25H28O5/c1-15(2)5-4-6-16(3)7-12-19-20(27)13-21(28)24-22(29)14-23(30-25(19)24)17-8-10-18(26)11-9-17/h5,7-11,13,23,26-28H,4,6,12,14H2,1-3H3

>  <threshold>  (10) 
5

>  <pchembl>  (10) 
4.91

>  <Classification>  (10) 
0

>  <source>  (10) 
chembl_28

>  <SMILES>  (10) 
CC(C)=CCC/C(C)=C/Cc1c(O)cc(O)c2c1O[C@H](c1ccc(O)cc1)CC2=O

>  <InChIKey>  (10) 
GOAUTULGLLBZSR-YLLUOSTHSA-N

$$$$

     RDKit          2D

 32 36  0  0  0  0  0  0  0  0999 V2000
   15.2457  -16.9780    0.0000 C   0  0  0  0  0  0  0  0  0  0  0  0
   15.9554  -16.5685    0.0000 C   0  0  0  0  0  0  0  0  0  0  0  0
   15.9525  -15.7459    0.0000 C   0  0  0  0  0  0  0  0  0  0  0  0
   15.2439  -15.3406    0.0000 C   0  0  0  0  0  0  0  0  0  0  0  0
   14.5377  -16.5690    0.0000 C   0  0  0  0  0  0  0  0  0  0  0  0
   14.5344  -15.7525    0.0000 C   0  0  0  0  0  0  0  0  0  0  0  0
   13.7568  -15.5033    0.0000 C   0  0  0  0  0  0  0  0  0  0  0  0
   13.2795  -16.1658    0.0000 C   0  0  0  0  0  0  0  0  0  0  0  0
   13.7621  -16.8244    0.0000 O   0  0  0  0  0  0  0  0  0  0  0  0
   16.6587  -15.3346    0.0000 C   0  0  0  0  0  0  0  0  0  0  0  0
   17.3679  -15.7405    0.0000 N   0  0  0  0  0  0  0  0  0  0  0  0
   17.3684  -16.5549    0.0000 C   0  0  0  0  0  0  0  0  0  0  0  0
   18.0736  -16.9608    0.0000 C   0  0  0  0  0  0  0  0  0  0  0  0
   18.7822  -16.5530    0.0000 N   0  0  0  0  0  0  0  0  0  0  0  0
   18.7811  -15.7349    0.0000 C   0  0  0  0  0  0  0  0  0  0  0  0
   18.0714  -15.3245    0.0000 C   0  0  0  0  0  0  0  0  0  0  0  0
   19.4899  -16.9616    0.0000 C   0  0  0  0  0  0  0  0  0  0  0  0
   19.4899  -17.7788    0.0000 O   0  0  0  0  0  0  0  0  0  0  0  0
   20.1976  -16.5530    0.0000 C   0  0  0  0  0  0  0  0  0  0  0  0
   20.9053  -16.9616    0.0000 S   0  0  0  0  0  0  0  0  0  0  0  0
   21.6130  -16.5530    0.0000 C   0  0  0  0  0  0  0  0  0  0  0  0
   22.3579  -16.8813    0.0000 N   0  0  0  0  0  0  0  0  0  0  0  0
   22.9047  -16.2740    0.0000 N   0  0  0  0  0  0  0  0  0  0  0  0
   22.4961  -15.5662    0.0000 C   0  0  0  0  0  0  0  0  0  0  0  0
   21.6968  -15.7362    0.0000 O   0  0  0  0  0  0  0  0  0  0  0  0
   22.8258  -14.8221    0.0000 C   0  0  0  0  0  0  0  0  0  0  0  0
   23.6397  -14.7379    0.0000 C   0  0  0  0  0  0  0  0  0  0  0  0
   23.9721  -13.9921    0.0000 C   0  0  0  0  0  0  0  0  0  0  0  0
   23.4915  -13.3301    0.0000 C   0  0  0  0  0  0  0  0  0  0  0  0
   22.6749  -13.4186    0.0000 C   0  0  0  0  0  0  0  0  0  0  0  0
   22.3463  -14.1645    0.0000 C   0  0  0  0  0  0  0  0  0  0  0  0
   23.8229  -12.5831    0.0000 F   0  0  0  0  0  0  0  0  0  0  0  0
  5  1  2  0
  1  2  1  0
  2  3  2  0
  3  4  1  0
  4  6  2  0
  5  6  1  0
  6  7  1  0
  7  8  1  0
  8  9  1  0
  9  5  1  0
  3 10  1  0
 10 11  1  0
 11 12  1  0
 11 16  1  0
 12 13  1  0
 13 14  1  0
 14 15  1  0
 15 16  1  0
 14 17  1  0
 17 18  2  0
 17 19  1  0
 19 20  1  0
 20 21  1  0
 21 22  2  0
 22 23  1  0
 23 24  2  0
 24 25  1  0
 25 21  1  0
 26 27  2  0
 27 28  1  0
 28 29  2  0
 29 30  1  0
 30 31  2  0
 31 26  1  0
 24 26  1  0
 29 32  1  0
M  END
>  <Curated_InChIs>  (11) 
InChI=1S/C23H23FN4O3S/c24-19-4-2-17(3-5-19)22-25-26-23(31-22)32-15-21(29)28-10-8-27(9-11-28)14-16-1-6-20-18(13-16)7-12-30-20/h1-6,13H,7-12,14-15H2

>  <threshold>  (11) 
5

>  <pchembl>  (11) 
4.84

>  <Classification>  (11) 
0

>  <source>  (11) 
chembl_28

>  <SMILES>  (11) 
O=C(CSc1nnc(-c2ccc(F)cc2)o1)N1CCN(Cc2ccc3c(c2)CCO3)CC1

>  <InChIKey>  (11) 
IEXJAHHTWULZER-UHFFFAOYSA-N

$$$$

     RDKit          2D

 21 23  0  0  0  0  0  0  0  0999 V2000
   35.5423  -11.0197    0.0000 C   0  0  0  0  0  0  0  0  0  0  0  0
   35.5411  -11.8392    0.0000 C   0  0  0  0  0  0  0  0  0  0  0  0
   36.2492  -12.2482    0.0000 C   0  0  0  0  0  0  0  0  0  0  0  0
   36.2474  -10.6108    0.0000 C   0  0  0  0  0  0  0  0  0  0  0  0
   36.9560  -11.0161    0.0000 C   0  0  0  0  0  0  0  0  0  0  0  0
   36.9568  -11.8351    0.0000 C   0  0  0  0  0  0  0  0  0  0  0  0
   37.6653  -12.2421    0.0000 N   0  0  0  0  0  0  0  0  0  0  0  0
   38.3736  -11.8313    0.0000 C   0  0  0  0  0  0  0  0  0  0  0  0
   38.3688  -11.0092    0.0000 N   0  0  0  0  0  0  0  0  0  0  0  0
   37.6597  -10.6058    0.0000 C   0  0  0  0  0  0  0  0  0  0  0  0
   37.6554   -9.7886    0.0000 N   0  0  0  0  0  0  0  0  0  0  0  0
   38.3609   -9.3763    0.0000 C   0  0  0  0  0  0  0  0  0  0  0  0
   39.0662   -9.7845    0.0000 C   0  0  0  0  0  0  0  0  0  0  0  0
   39.7713   -9.3729    0.0000 C   0  0  0  0  0  0  0  0  0  0  0  0
   39.7674   -8.5548    0.0000 C   0  0  0  0  0  0  0  0  0  0  0  0
   39.0525   -8.1502    0.0000 C   0  0  0  0  0  0  0  0  0  0  0  0
   38.3504   -8.5642    0.0000 C   0  0  0  0  0  0  0  0  0  0  0  0
   39.0453   -7.3330    0.0000 N   0  0  0  0  0  0  0  0  0  0  0  0
   39.7494   -6.9182    0.0000 C   0  0  0  0  0  0  0  0  0  0  0  0
   39.7422   -6.1010    0.0000 O   0  0  0  0  0  0  0  0  0  0  0  0
   40.4607   -7.3205    0.0000 C   0  0  0  0  0  0  0  0  0  0  0  0
  1  2  2  0
  2  3  1  0
  3  6  2  0
  5  4  2  0
  4  1  1  0
  5  6  1  0
  6  7  1  0
  7  8  2  0
  8  9  1  0
  9 10  2  0
 10  5  1  0
 10 11  1  0
 11 12  1  0
 12 13  2  0
 13 14  1  0
 14 15  2  0
 15 16  1  0
 16 17  2  0
 17 12  1  0
 16 18  1  0
 18 19  1  0
 19 20  2  0
 19 21  1  0
M  END
>  <Curated_InChIs>  (12) 
InChI=1S/C16H14N4O/c1-11(21)19-12-5-4-6-13(9-12)20-16-14-7-2-3-8-15(14)17-10-18-16/h2-10H,1H3,(H,19,21)(H,17,18,20)

>  <threshold>  (12) 
5

>  <pchembl>  (12) 
4.54

>  <Classification>  (12) 
0

>  <source>  (12) 
chembl_28

>  <SMILES>  (12) 
CC(=O)Nc1cccc(Nc2ncnc3ccccc23)c1

>  <InChIKey>  (12) 
IYLXSDCMIHVTDE-UHFFFAOYSA-N

$$$$

     RDKit          2D

 35 38  0  0  0  0  0  0  0  0999 V2000
   32.5122  -20.2456    0.0000 C   0  0  0  0  0  0  0  0  0  0  0  0
   32.5163  -21.0789    0.0000 C   0  0  0  0  0  0  0  0  0  0  0  0
   33.2288  -19.8331    0.0000 C   0  0  0  0  0  0  0  0  0  0  0  0
   33.9413  -20.2456    0.0000 C   0  0  0  0  0  0  0  0  0  0  0  0
   33.9413  -21.0789    0.0000 C   0  0  0  0  0  0  0  0  0  0  0  0
   33.2288  -21.4914    0.0000 C   0  0  0  0  0  0  0  0  0  0  0  0
   31.7164  -19.9956    0.0000 C   0  0  0  0  0  0  0  0  0  0  0  0
   31.2288  -20.6706    0.0000 O   0  0  0  0  0  0  0  0  0  0  0  0
   31.7288  -21.3331    0.0000 C   0  0  0  0  0  0  0  0  0  0  0  0
   31.4663  -19.2081    0.0000 O   0  0  0  0  0  0  0  0  0  0  0  0
   34.6561  -21.4910    0.0000 N   0  0  0  0  0  0  0  0  0  0  0  0
   35.3702  -21.0781    0.0000 C   0  0  0  0  0  0  0  0  0  0  0  0
   36.0850  -21.4902    0.0000 C   0  0  0  0  0  0  0  0  0  0  0  0
   35.3697  -20.2531    0.0000 O   0  0  0  0  0  0  0  0  0  0  0  0
   36.7991  -21.0773    0.0000 O   0  0  0  0  0  0  0  0  0  0  0  0
   37.5139  -21.4893    0.0000 C   0  0  0  0  0  0  0  0  0  0  0  0
   37.5098  -22.3134    0.0000 C   0  0  0  0  0  0  0  0  0  0  0  0
   38.2237  -22.7254    0.0000 C   0  0  0  0  0  0  0  0  0  0  0  0
   38.9388  -22.3123    0.0000 C   0  0  0  0  0  0  0  0  0  0  0  0
   38.9357  -21.4831    0.0000 C   0  0  0  0  0  0  0  0  0  0  0  0
   38.2213  -21.0748    0.0000 C   0  0  0  0  0  0  0  0  0  0  0  0
   39.6485  -21.0677    0.0000 C   0  0  0  0  0  0  0  0  0  0  0  0
   40.3646  -21.4772    0.0000 C   0  0  0  0  0  0  0  0  0  0  0  0
   39.6451  -20.2427    0.0000 O   0  0  0  0  0  0  0  0  0  0  0  0
   41.0774  -21.0617    0.0000 C   0  0  0  0  0  0  0  0  0  0  0  0
   41.7935  -21.4713    0.0000 C   0  0  0  0  0  0  0  0  0  0  0  0
   41.7918  -22.2967    0.0000 C   0  0  0  0  0  0  0  0  0  0  0  0
   42.5072  -22.7062    0.0000 C   0  0  0  0  0  0  0  0  0  0  0  0
   43.2209  -22.2906    0.0000 C   0  0  0  0  0  0  0  0  0  0  0  0
   43.2149  -21.4614    0.0000 C   0  0  0  0  0  0  0  0  0  0  0  0
   42.4989  -21.0557    0.0000 C   0  0  0  0  0  0  0  0  0  0  0  0
   42.5102  -23.5312    0.0000 O   0  0  0  0  0  0  0  0  0  0  0  0
   43.9376  -22.6992    0.0000 O   0  0  0  0  0  0  0  0  0  0  0  0
   41.7972  -23.9462    0.0000 C   0  0  0  0  0  0  0  0  0  0  0  0
   43.9421  -23.5242    0.0000 C   0  0  0  0  0  0  0  0  0  0  0  0
  2  1  1  0
  3  1  2  0
  4  3  1  0
  5  4  2  0
  6  2  2  0
  7  1  1  0
  8  7  1  0
  9  2  1  0
 10  7  2  0
  8  9  1  0
  6  5  1  0
  5 11  1  0
 11 12  1  0
 12 13  1  0
 12 14  2  0
 13 15  1  0
 15 16  1  0
 16 17  2  0
 17 18  1  0
 18 19  2  0
 19 20  1  0
 20 21  2  0
 21 16  1  0
 20 22  1  0
 22 23  1  0
 22 24  2  0
 23 25  2  0
 25 26  1  0
 26 27  2  0
 27 28  1  0
 28 29  2  0
 29 30  1  0
 30 31  2  0
 31 26  1  0
 28 32  1  0
 29 33  1  0
 32 34  1  0
 33 35  1  0
M  END
>  <Curated_InChIs>  (13) 
InChI=1S/C27H23NO7/c1-32-24-11-7-17(12-25(24)33-2)6-10-23(29)18-4-3-5-21(14-18)34-16-26(30)28-20-8-9-22-19(13-20)15-35-27(22)31/h3-14H,15-16H2,1-2H3,(H,28,30)

>  <threshold>  (13) 
5

>  <pchembl>  (13) 
4.92

>  <Classification>  (13) 
0

>  <source>  (13) 
chembl_28

>  <SMILES>  (13) 
COc1ccc(/C=C/C(=O)c2cccc(OCC(=O)Nc3ccc4c(c3)COC4=O)c2)cc1OC

>  <InChIKey>  (13) 
JEXBBMRHKZSKNJ-UXBLZVDNSA-N

$$$$

     RDKit          2D

 25 27  0  0  0  0  0  0  0  0999 V2000
    2.2978   -0.3389    0.0000 C   0  0  0  0  0  0  0  0  0  0  0  0
    2.2966   -1.1661    0.0000 C   0  0  0  0  0  0  0  0  0  0  0  0
    3.0091   -1.5786    0.0000 C   0  0  0  0  0  0  0  0  0  0  0  0
    3.0071    0.0737    0.0000 C   0  0  0  0  0  0  0  0  0  0  0  0
    3.7248   -0.3350    0.0000 C   0  0  0  0  0  0  0  0  0  0  0  0
    3.7259   -1.1618    0.0000 C   0  0  0  0  0  0  0  0  0  0  0  0
    4.4414   -1.5726    0.0000 C   0  0  0  0  0  0  0  0  0  0  0  0
    5.1563   -1.1575    0.0000 C   0  0  0  0  0  0  0  0  0  0  0  0
    4.4352    0.0795    0.0000 C   0  0  0  0  0  0  0  0  0  0  0  0
    5.1519   -0.3310    0.0000 C   0  0  0  0  0  0  0  0  0  0  0  0
    5.8618    0.0821    0.0000 C   0  0  0  0  0  0  0  0  0  0  0  0
    5.8613    0.9075    0.0000 C   0  0  0  0  0  0  0  0  0  0  0  0
    5.1445    1.3180    0.0000 C   0  0  0  0  0  0  0  0  0  0  0  0
    4.4284    0.9031    0.0000 O   0  0  0  0  0  0  0  0  0  0  0  0
    3.0032    0.8981    0.0000 O   0  0  0  0  0  0  0  0  0  0  0  0
    2.2874    1.3070    0.0000 C   0  0  0  0  0  0  0  0  0  0  0  0
    1.5819   -1.5772    0.0000 O   0  0  0  0  0  0  0  0  0  0  0  0
    4.4434   -2.3971    0.0000 O   0  0  0  0  0  0  0  0  0  0  0  0
    5.8719   -1.5670    0.0000 O   0  0  0  0  0  0  0  0  0  0  0  0
    3.7303   -2.8110    0.0000 C   0  0  0  0  0  0  0  0  0  0  0  0
    6.5767   -0.3287    0.0000 O   0  0  0  0  0  0  0  0  0  0  0  0
    5.1425    2.1425    0.0000 C   0  0  0  0  0  0  0  0  0  0  0  0
    4.4275    2.5530    0.0000 C   0  0  0  0  0  0  0  0  0  0  0  0
    3.7145    2.1390    0.0000 C   0  0  0  0  0  0  0  0  0  0  0  0
    5.8751   -2.3915    0.0000 C   0  0  0  0  0  0  0  0  0  0  0  0
  3  6  2  0
  9 14  1  0
 10 11  1  0
 11 12  1  0
 12 13  2  0
 13 14  1  0
  6  7  1  0
  4 15  1  0
  1  2  2  0
 15 16  1  0
  7  8  2  0
  2 17  1  0
  8 10  1  0
  7 18  1  0
  9  5  1  0
  8 19  1  0
  9 10  2  0
 18 20  1  0
  5  4  2  0
 11 21  2  0
  4  1  1  0
 13 22  1  0
 22 23  1  0
  2  3  1  0
 23 24  1  0
  5  6  1  0
 19 25  1  0
M  END
>  <Curated_InChIs>  (14) 
InChI=1S/C19H20O6/c1-5-6-11-9-13(21)16-18(25-11)15-12(17(23-3)19(16)24-4)7-10(20)8-14(15)22-2/h7-9,20H,5-6H2,1-4H3

>  <threshold>  (14) 
5

>  <pchembl>  (14) 
4.78

>  <Classification>  (14) 
0

>  <source>  (14) 
chembl_28

>  <SMILES>  (14) 
CCCc1cc(=O)c2c(OC)c(OC)c3cc(O)cc(OC)c3c2o1

>  <InChIKey>  (14) 
JUNIOWHVNDZWCB-UHFFFAOYSA-N

$$$$

     RDKit          2D

 25 27  0  0  0  0  0  0  0  0999 V2000
   -3.0844  -10.5689    0.0000 C   0  0  0  0  0  0  0  0  0  0  0  0
   -2.3612  -10.1581    0.0000 C   0  0  0  0  0  0  0  0  0  0  0  0
   -3.7917  -10.1581    0.0000 C   0  0  0  0  0  0  0  0  0  0  0  0
   -3.7917   -9.3318    0.0000 C   0  0  0  0  0  0  0  0  0  0  0  0
   -2.3612   -9.3318    0.0000 O   0  0  0  0  0  0  0  0  0  0  0  0
   -3.0844   -8.9165    0.0000 C   0  0  0  0  0  0  0  0  0  0  0  0
   -4.5104   -8.9203    0.0000 C   0  0  0  0  0  0  0  0  0  0  0  0
   -1.6463  -10.5689    0.0000 C   0  0  0  0  0  0  0  0  0  0  0  0
   -3.0882   -8.0866    0.0000 C   0  0  0  0  0  0  0  0  0  0  0  0
   -4.5179   -8.1016    0.0000 C   0  0  0  0  0  0  0  0  0  0  0  0
   -0.9314  -10.1573    0.0000 C   0  0  0  0  0  0  0  0  0  0  0  0
   -0.2166  -10.5766    0.0000 C   0  0  0  0  0  0  0  0  0  0  0  0
   -4.5066  -10.5689    0.0000 O   0  0  0  0  0  0  0  0  0  0  0  0
   -3.8030   -7.6793    0.0000 C   0  0  0  0  0  0  0  0  0  0  0  0
   -0.2203  -11.3991    0.0000 C   0  0  0  0  0  0  0  0  0  0  0  0
   -1.6463  -11.3991    0.0000 C   0  0  0  0  0  0  0  0  0  0  0  0
   -3.0844  -11.3952    0.0000 O   0  0  0  0  0  0  0  0  0  0  0  0
   -0.9352  -11.8061    0.0000 C   0  0  0  0  0  0  0  0  0  0  0  0
   -5.2177   -9.3387    0.0000 O   0  0  0  0  0  0  0  0  0  0  0  0
    0.4983  -10.1649    0.0000 O   0  0  0  0  0  0  0  0  0  0  0  0
    0.4908  -11.8099    0.0000 O   0  0  0  0  0  0  0  0  0  0  0  0
   -3.8107   -6.8530    0.0000 O   0  0  0  0  0  0  0  0  0  0  0  0
   -3.7993  -11.8025    0.0000 C   0  0  0  0  0  0  0  0  0  0  0  0
    1.2133  -10.5841    0.0000 C   0  0  0  0  0  0  0  0  0  0  0  0
   -3.0949   -6.4386    0.0000 C   0  0  0  0  0  0  0  0  0  0  0  0
  2  1  2  0
  3  1  1  0
  4  3  1  0
  5  2  1  0
  6  4  2  0
  7  4  1  0
  8  2  1  0
  9  6  1  0
 10  7  2  0
 11  8  2  0
 12 11  1  0
 13  3  2  0
 14  9  2  0
 15 18  1  0
 16  8  1  0
 17  1  1  0
 18 16  2  0
 19  7  1  0
 20 12  1  0
 21 15  1  0
 22 14  1  0
 23 17  1  0
 24 20  1  0
 25 22  1  0
  5  6  1  0
 14 10  1  0
 15 12  2  0
M  END
>  <Curated_InChIs>  (15) 
InChI=1S/C18H16O7/c1-22-10-7-12(20)15-14(8-10)25-17(18(24-3)16(15)21)9-4-5-11(19)13(6-9)23-2/h4-8,19-20H,1-3H3

>  <threshold>  (15) 
5

>  <pchembl>  (15) 
4.76

>  <Classification>  (15) 
0

>  <source>  (15) 
chembl_28

>  <SMILES>  (15) 
COc1cc(O)c2c(=O)c(OC)c(-c3ccc(O)c(OC)c3)oc2c1

>  <InChIKey>  (15) 
KQFUXLQBMQGNRT-UHFFFAOYSA-N

$$$$

     RDKit          2D

 16 17  0  0  0  0  0  0  0  0999 V2000
   16.1178  -12.6528    0.0000 C   0  0  0  0  0  0  0  0  0  0  0  0
   16.1166  -13.4802    0.0000 C   0  0  0  0  0  0  0  0  0  0  0  0
   16.8314  -13.8930    0.0000 C   0  0  0  0  0  0  0  0  0  0  0  0
   17.5478  -13.4797    0.0000 C   0  0  0  0  0  0  0  0  0  0  0  0
   17.5449  -12.6492    0.0000 C   0  0  0  0  0  0  0  0  0  0  0  0
   16.8296  -12.2402    0.0000 C   0  0  0  0  0  0  0  0  0  0  0  0
   18.2578  -12.2341    0.0000 O   0  0  0  0  0  0  0  0  0  0  0  0
   18.2628  -13.8910    0.0000 C   0  0  0  0  0  0  0  0  0  0  0  0
   18.2641  -14.7159    0.0000 O   0  0  0  0  0  0  0  0  0  0  0  0
   18.9765  -13.4775    0.0000 C   0  0  0  0  0  0  0  0  0  0  0  0
   19.6916  -13.8888    0.0000 C   0  0  0  0  0  0  0  0  0  0  0  0
   20.4054  -13.4752    0.0000 C   0  0  0  0  0  0  0  0  0  0  0  0
   21.1569  -13.8065    0.0000 S   0  0  0  0  0  0  0  0  0  0  0  0
   21.7079  -13.1927    0.0000 C   0  0  0  0  0  0  0  0  0  0  0  0
   21.2943  -12.4789    0.0000 C   0  0  0  0  0  0  0  0  0  0  0  0
   20.4878  -12.6517    0.0000 C   0  0  0  0  0  0  0  0  0  0  0  0
  4  8  1  0
  8  9  2  0
  4  5  2  0
  8 10  1  0
  2  3  2  0
 10 11  2  0
  5  6  1  0
 11 12  1  0
 12 13  1  0
  6  1  2  0
  1  2  1  0
  5  7  1  0
  3  4  1  0
 13 14  1  0
 14 15  2  0
 15 16  1  0
 16 12  2  0
M  END
>  <Curated_InChIs>  (16) 
InChI=1S/C13H10O2S/c14-12-6-2-1-5-11(12)13(15)8-7-10-4-3-9-16-10/h1-9,14H

>  <threshold>  (16) 
5

>  <pchembl>  (16) 
4.98

>  <Classification>  (16) 
0

>  <source>  (16) 
chembl_28

>  <SMILES>  (16) 
O=C(/C=C/c1cccs1)c1ccccc1O

>  <InChIKey>  (16) 
KROMWFWQAIFUPA-BQYQJAHWSA-N

$$$$

     RDKit          2D

 20 22  0  0  0  0  0  0  0  0999 V2000
   -1.7362   -8.8799    0.0000 C   0  0  0  0  0  0  0  0  0  0  0  0
   -1.7375   -9.7085    0.0000 C   0  0  0  0  0  0  0  0  0  0  0  0
   -1.0236  -10.1219    0.0000 C   0  0  0  0  0  0  0  0  0  0  0  0
   -1.0256   -8.4666    0.0000 C   0  0  0  0  0  0  0  0  0  0  0  0
   -0.3066   -8.8758    0.0000 C   0  0  0  0  0  0  0  0  0  0  0  0
   -0.3055   -9.7043    0.0000 C   0  0  0  0  0  0  0  0  0  0  0  0
    0.4113  -10.1158    0.0000 C   0  0  0  0  0  0  0  0  0  0  0  0
    1.1243   -9.7013    0.0000 C   0  0  0  0  0  0  0  0  0  0  0  0
   -2.4534  -10.1205    0.0000 O   0  0  0  0  0  0  0  0  0  0  0  0
   -1.0296   -7.6405    0.0000 O   0  0  0  0  0  0  0  0  0  0  0  0
   -1.7468   -7.2308    0.0000 C   0  0  0  0  0  0  0  0  0  0  0  0
    0.4051   -8.4607    0.0000 C   0  0  0  0  0  0  0  0  0  0  0  0
    1.1214   -8.8657    0.0000 C   0  0  0  0  0  0  0  0  0  0  0  0
    1.8264   -8.4501    0.0000 C   0  0  0  0  0  0  0  0  0  0  0  0
    1.8214   -7.6278    0.0000 C   0  0  0  0  0  0  0  0  0  0  0  0
    1.1050   -7.2229    0.0000 C   0  0  0  0  0  0  0  0  0  0  0  0
    0.3937   -7.6401    0.0000 O   0  0  0  0  0  0  0  0  0  0  0  0
    1.0984   -6.3968    0.0000 C   0  0  0  0  0  0  0  0  0  0  0  0
    2.5450   -8.8578    0.0000 O   0  0  0  0  0  0  0  0  0  0  0  0
    1.8410  -10.1121    0.0000 O   0  0  0  0  0  0  0  0  0  0  0  0
  2  9  1  0
  4  1  2  0
  4 10  1  0
 10 11  1  0
 12 13  2  0
  2  3  2  0
  5  6  2  0
  3  6  1  0
  6  7  1  0
  7  8  2  0
 12  5  1  0
 12 17  1  0
 13 14  1  0
 14 15  1  0
 15 16  2  0
 16 17  1  0
 13  8  1  0
 16 18  1  0
  1  2  1  0
 14 19  2  0
  5  4  1  0
  8 20  1  0
M  END
>  <Curated_InChIs>  (17) 
InChI=1S/C15H12O5/c1-7-3-10(17)14-11(18)5-8-4-9(16)6-12(19-2)13(8)15(14)20-7/h3-6,16,18H,1-2H3

>  <threshold>  (17) 
5

>  <pchembl>  (17) 
4.89

>  <Classification>  (17) 
0

>  <source>  (17) 
chembl_28

>  <SMILES>  (17) 
COc1cc(O)cc2cc(O)c3c(=O)cc(C)oc3c12

>  <InChIKey>  (17) 
LMPLCDBTXJVFFT-UHFFFAOYSA-N

$$$$

     RDKit          2D

 34 39  0  0  0  0  0  0  0  0999 V2000
    3.0437   -0.0963    0.0000 C   0  0  0  0  0  0  0  0  0  0  0  0
    3.9511   -0.8815    0.0000 C   0  0  0  0  0  0  0  0  0  0  0  0
    4.9531   -1.9978    0.0000 C   0  0  0  0  0  0  0  0  0  0  0  0
    4.2010   -3.2956    0.0000 C   0  0  0  0  0  0  0  0  0  0  0  0
    2.7343   -2.9815    0.0000 C   0  0  0  0  0  0  0  0  0  0  0  0
    2.5987   -1.5004    0.0000 N   0  0  0  0  0  0  0  0  0  0  0  0
    1.2990   -0.7500    0.0000 C   0  0  0  0  0  0  0  0  0  0  0  0
    1.2990    0.7500    0.0000 N   0  0  0  0  0  0  0  0  0  0  0  0
    0.0000    1.5000    0.0000 C   0  0  0  0  0  0  0  0  0  0  0  0
    0.0031    3.0008    0.0000 N   0  0  0  0  0  0  0  0  0  0  0  0
    1.3039    3.7494    0.0000 C   0  0  0  0  0  0  0  0  0  0  0  0
    1.4469    5.2298    0.0000 C   0  0  0  0  0  0  0  0  0  0  0  0
    2.9152    5.5365    0.0000 C   0  0  0  0  0  0  0  0  0  0  0  0
    3.6607    4.2349    0.0000 N   0  0  0  0  0  0  0  0  0  0  0  0
    2.6531    3.1237    0.0000 N   0  0  0  0  0  0  0  0  0  0  0  0
    3.5304    6.9054    0.0000 C   0  0  0  0  0  0  0  0  0  0  0  0
    3.4681    8.3217    0.0000 C   0  0  0  0  0  0  0  0  0  0  0  0
    4.7759    7.5871    0.0000 C   0  0  0  0  0  0  0  0  0  0  0  0
   -1.2990    0.7500    0.0000 C   0  0  0  0  0  0  0  0  0  0  0  0
   -2.7248    1.2135    0.0000 C   0  0  0  0  0  0  0  0  0  0  0  0
   -3.6065    0.0000    0.0000 C   0  0  0  0  0  0  0  0  0  0  0  0
   -2.7248   -1.2135    0.0000 C   0  0  0  0  0  0  0  0  0  0  0  0
   -1.2990   -0.7500    0.0000 N   0  0  0  0  0  0  0  0  0  0  0  0
    0.0000   -1.5000    0.0000 N   0  0  0  0  0  0  0  0  0  0  0  0
    5.3712   -0.4376    0.0000 C   0  0  0  0  0  0  0  0  0  0  0  0
    5.6155    0.7373    0.0000 O   0  0  0  0  0  0  0  0  0  0  0  0
    6.4913   -1.4365    0.0000 N   0  0  0  0  0  0  0  0  0  0  0  0
    7.9168   -0.9668    0.0000 C   0  0  0  0  0  0  0  0  0  0  0  0
    9.0377   -1.9636    0.0000 C   0  0  0  0  0  0  0  0  0  0  0  0
   10.4614   -1.4913    0.0000 C   0  0  0  0  0  0  0  0  0  0  0  0
   10.7643   -0.0222    0.0000 C   0  0  0  0  0  0  0  0  0  0  0  0
   11.9032    0.3557    0.0000 F   0  0  0  0  0  0  0  0  0  0  0  0
    9.6434    0.9746    0.0000 N   0  0  0  0  0  0  0  0  0  0  0  0
    8.2197    0.5023    0.0000 C   0  0  0  0  0  0  0  0  0  0  0  0
  2  1  1  1
  2  3  1  0
  3  4  1  0
  4  5  1  0
  5  6  1  0
  6  2  1  0
  6  7  1  0
  7  8  1  0
  8  9  2  0
  9 10  1  0
 10 11  1  0
 11 12  2  0
 12 13  1  0
 13 14  2  0
 14 15  1  0
 15 11  1  0
 13 16  1  0
 16 17  1  0
 17 18  1  0
 18 16  1  0
  9 19  1  0
 19 20  2  0
 20 21  1  0
 21 22  2  0
 22 23  1  0
 23 19  1  0
 23 24  1  0
 24  7  2  0
  2 25  1  0
 25 26  2  0
 25 27  1  0
 27 28  1  0
 28 29  2  0
 29 30  1  0
 30 31  2  0
 31 32  1  0
 31 33  1  0
 33 34  2  0
 34 28  1  0
M  END
>  <Curated_InChIs>  (18) 
InChI=1S/C23H24FN9O/c1-23(21(34)26-15-7-8-18(24)25-13-15)9-3-10-32(23)22-28-20(17-4-2-11-33(17)31-22)27-19-12-16(29-30-19)14-5-6-14/h2,4,7-8,11-14H,3,5-6,9-10H2,1H3,(H,26,34)(H2,27,28,29,30,31)

>  <threshold>  (18) 
5

>  <pchembl>  (18) 
4.99

>  <Classification>  (18) 
0

>  <source>  (18) 
chembl_28

>  <SMILES>  (18) 
C[C@@]1(C(=O)Nc2ccc(F)nc2)CCCN1c1nc(Nc2cc(C3CC3)n[nH]2)c2cccn2n1

>  <InChIKey>  (18) 
LQVXSNNAFNGRAH-QHCPKHFHSA-N

$$$$

     RDKit          2D

 19 20  0  0  0  0  0  0  0  0999 V2000
    5.8424   -3.4028    0.0000 C   0  0  0  0  0  0  0  0  0  0  0  0
    6.5098   -2.9179    0.0000 C   0  0  0  0  0  0  0  0  0  0  0  0
    7.1773   -3.4028    0.0000 C   0  0  0  0  0  0  0  0  0  0  0  0
    6.9223   -4.1874    0.0000 S   0  0  0  0  0  0  0  0  0  0  0  0
    6.0973   -4.1874    0.0000 C   0  0  0  0  0  0  0  0  0  0  0  0
    6.5098   -2.0929    0.0000 C   0  0  0  0  0  0  0  0  0  0  0  0
    7.2243   -1.6804    0.0000 O   0  0  0  0  0  0  0  0  0  0  0  0
    5.7954   -1.6804    0.0000 O   0  0  0  0  0  0  0  0  0  0  0  0
    7.9619   -3.1479    0.0000 N   0  0  0  0  0  0  0  0  0  0  0  0
    8.5750   -3.6999    0.0000 C   0  0  0  0  0  0  0  0  0  0  0  0
    9.3596   -3.4450    0.0000 N   0  0  0  0  0  0  0  0  0  0  0  0
    8.4035   -4.5069    0.0000 S   0  0  0  0  0  0  0  0  0  0  0  0
    9.5311   -2.6380    0.0000 C   0  0  0  0  0  0  0  0  0  0  0  0
    9.9727   -3.9970    0.0000 C   0  0  0  0  0  0  0  0  0  0  0  0
   10.7573   -3.7421    0.0000 C   0  0  0  0  0  0  0  0  0  0  0  0
   11.3704   -4.2941    0.0000 C   0  0  0  0  0  0  0  0  0  0  0  0
   11.1989   -5.1011    0.0000 C   0  0  0  0  0  0  0  0  0  0  0  0
   10.4143   -5.3560    0.0000 C   0  0  0  0  0  0  0  0  0  0  0  0
    9.8012   -4.8040    0.0000 C   0  0  0  0  0  0  0  0  0  0  0  0
  4  5  1  0
  9 10  1  0
  5  1  2  0
 10 11  1  0
  1  2  1  0
 10 12  2  0
  2  6  1  0
 11 13  1  0
 11 14  1  0
 14 15  1  0
  6  7  2  0
  2  3  2  0
  6  8  1  0
  3  4  1  0
  3  9  1  0
 14 19  1  0
 15 16  1  0
 16 17  1  0
 17 18  1  0
 18 19  1  0
M  END
>  <Curated_InChIs>  (19) 
InChI=1S/C13H18N2O2S2/c1-15(9-5-3-2-4-6-9)13(18)14-11-10(12(16)17)7-8-19-11/h7-9H,2-6H2,1H3,(H,14,18)(H,16,17)

>  <threshold>  (19) 
5

>  <pchembl>  (19) 
4.99

>  <Classification>  (19) 
0

>  <source>  (19) 
chembl_28

>  <SMILES>  (19) 
CN(C(=S)Nc1sccc1C(=O)O)C1CCCCC1

>  <InChIKey>  (19) 
MNLJTQOGIGSVKR-UHFFFAOYSA-N

$$$$

     RDKit          2D

 17 19  0  0  0  0  0  0  0  0999 V2000
    4.2648   -0.6794    0.0000 N   0  0  0  0  0  0  0  0  0  0  0  0
    3.5504    0.5581    0.0000 N   0  0  0  0  0  0  0  0  0  0  0  0
    4.2648    1.7956    0.0000 N   0  0  0  0  0  0  0  0  0  0  0  0
    4.9793    0.5581    0.0000 C   0  0  0  0  0  0  0  0  0  0  0  0
    4.2648    0.1456    0.0000 C   0  0  0  0  0  0  0  0  0  0  0  0
    4.9793    1.3831    0.0000 C   0  0  0  0  0  0  0  0  0  0  0  0
    5.6938    0.1456    0.0000 C   0  0  0  0  0  0  0  0  0  0  0  0
    5.6938    1.7956    0.0000 C   0  0  0  0  0  0  0  0  0  0  0  0
    3.5504   -1.0919    0.0000 C   0  0  0  0  0  0  0  0  0  0  0  0
    3.5504    1.3831    0.0000 C   0  0  0  0  0  0  0  0  0  0  0  0
    6.4083    0.5581    0.0000 C   0  0  0  0  0  0  0  0  0  0  0  0
    6.4083    1.3831    0.0000 C   0  0  0  0  0  0  0  0  0  0  0  0
    3.5504   -1.9169    0.0000 C   0  0  0  0  0  0  0  0  0  0  0  0
    2.8359   -0.6794    0.0000 C   0  0  0  0  0  0  0  0  0  0  0  0
    2.8359   -2.3294    0.0000 C   0  0  0  0  0  0  0  0  0  0  0  0
    2.1214   -1.0919    0.0000 C   0  0  0  0  0  0  0  0  0  0  0  0
    2.1214   -1.9169    0.0000 C   0  0  0  0  0  0  0  0  0  0  0  0
  1  5  1  0
  1  9  1  0
  2  5  2  0
  2 10  1  0
  3  6  1  0
  3 10  2  0
  4  5  1  0
  4  6  2  0
  4  7  1  0
  6  8  1  0
  7 11  2  0
  8 12  2  0
  9 13  2  0
  9 14  1  0
 11 12  1  0
 13 15  1  0
 14 16  2  0
 15 17  2  0
 16 17  1  0
M  END
>  <Curated_InChIs>  (20) 
InChI=1S/C14H11N3/c1-2-6-11(7-3-1)17-14-12-8-4-5-9-13(12)15-10-16-14/h1-10H,(H,15,16,17)

>  <threshold>  (20) 
5

>  <pchembl>  (20) 
4.97

>  <Classification>  (20) 
0

>  <source>  (20) 
chembl_28

>  <SMILES>  (20) 
c1ccc(Nc2ncnc3ccccc23)cc1

>  <InChIKey>  (20) 
MTSNDBYBIZSILH-UHFFFAOYSA-N

$$$$

     RDKit          2D

 34 37  0  0  0  0  0  0  0  0999 V2000
    2.6084  -13.4094    0.0000 C   0  0  0  0  0  0  0  0  0  0  0  0
    2.6125  -14.2348    0.0000 C   0  0  0  0  0  0  0  0  0  0  0  0
    3.3183  -13.0008    0.0000 C   0  0  0  0  0  0  0  0  0  0  0  0
    4.0240  -13.4094    0.0000 C   0  0  0  0  0  0  0  0  0  0  0  0
    4.0240  -14.2348    0.0000 C   0  0  0  0  0  0  0  0  0  0  0  0
    3.3183  -14.6434    0.0000 C   0  0  0  0  0  0  0  0  0  0  0  0
    1.8201  -13.1617    0.0000 C   0  0  0  0  0  0  0  0  0  0  0  0
    1.3372  -13.8303    0.0000 O   0  0  0  0  0  0  0  0  0  0  0  0
    1.8325  -14.4866    0.0000 C   0  0  0  0  0  0  0  0  0  0  0  0
    1.5725  -12.3817    0.0000 O   0  0  0  0  0  0  0  0  0  0  0  0
    4.7320  -14.6430    0.0000 N   0  0  0  0  0  0  0  0  0  0  0  0
    5.4395  -14.2340    0.0000 C   0  0  0  0  0  0  0  0  0  0  0  0
    6.1474  -14.6421    0.0000 C   0  0  0  0  0  0  0  0  0  0  0  0
    5.4390  -13.4168    0.0000 O   0  0  0  0  0  0  0  0  0  0  0  0
    6.8549  -14.2331    0.0000 O   0  0  0  0  0  0  0  0  0  0  0  0
    7.5628  -14.6413    0.0000 C   0  0  0  0  0  0  0  0  0  0  0  0
    7.5588  -15.4575    0.0000 C   0  0  0  0  0  0  0  0  0  0  0  0
    8.2659  -15.8656    0.0000 C   0  0  0  0  0  0  0  0  0  0  0  0
    8.9744  -15.4566    0.0000 C   0  0  0  0  0  0  0  0  0  0  0  0
    8.9713  -14.6351    0.0000 C   0  0  0  0  0  0  0  0  0  0  0  0
    8.2636  -14.2308    0.0000 C   0  0  0  0  0  0  0  0  0  0  0  0
    9.6829  -15.8638    0.0000 C   0  0  0  0  0  0  0  0  0  0  0  0
    9.6845  -16.6810    0.0000 O   0  0  0  0  0  0  0  0  0  0  0  0
   10.3898  -15.4538    0.0000 C   0  0  0  0  0  0  0  0  0  0  0  0
   11.0983  -15.8611    0.0000 C   0  0  0  0  0  0  0  0  0  0  0  0
   11.8052  -15.4511    0.0000 C   0  0  0  0  0  0  0  0  0  0  0  0
   12.5101  -15.8610    0.0000 C   0  0  0  0  0  0  0  0  0  0  0  0
   13.2165  -15.4517    0.0000 C   0  0  0  0  0  0  0  0  0  0  0  0
   13.2154  -14.6336    0.0000 C   0  0  0  0  0  0  0  0  0  0  0  0
   12.5019  -14.2266    0.0000 C   0  0  0  0  0  0  0  0  0  0  0  0
   11.7984  -14.6382    0.0000 C   0  0  0  0  0  0  0  0  0  0  0  0
   13.9218  -14.2227    0.0000 O   0  0  0  0  0  0  0  0  0  0  0  0
   14.6308  -14.6290    0.0000 C   0  0  0  0  0  0  0  0  0  0  0  0
   15.3372  -14.2181    0.0000 C   0  0  0  0  0  0  0  0  0  0  0  0
  2  1  1  0
  3  1  2  0
  4  3  1  0
  5  4  2  0
  6  2  2  0
  7  1  1  0
  8  7  1  0
  9  2  1  0
 10  7  2  0
  8  9  1  0
  6  5  1  0
  5 11  1  0
 11 12  1  0
 12 13  1  0
 12 14  2  0
 13 15  1  0
 15 16  1  0
 16 17  2  0
 17 18  1  0
 18 19  2  0
 19 20  1  0
 20 21  2  0
 21 16  1  0
 19 22  1  0
 22 23  2  0
 22 24  1  0
 24 25  2  0
 25 26  1  0
 26 27  2  0
 27 28  1  0
 28 29  2  0
 29 30  1  0
 30 31  2  0
 31 26  1  0
 29 32  1  0
 32 33  1  0
 33 34  1  0
M  END
>  <Curated_InChIs>  (21) 
InChI=1S/C27H23NO6/c1-2-32-22-9-3-18(4-10-22)5-14-25(29)19-6-11-23(12-7-19)33-17-26(30)28-21-8-13-24-20(15-21)16-34-27(24)31/h3-15H,2,16-17H2,1H3,(H,28,30)

>  <threshold>  (21) 
5

>  <pchembl>  (21) 
4.7

>  <Classification>  (21) 
0

>  <source>  (21) 
chembl_28

>  <SMILES>  (21) 
CCOc1ccc(/C=C/C(=O)c2ccc(OCC(=O)Nc3ccc4c(c3)COC4=O)cc2)cc1

>  <InChIKey>  (21) 
NBTXFXABNCHMPA-LHHJGKSTSA-N

$$$$

     RDKit          2D

 50 53  0  0  0  0  0  0  0  0999 V2000
   -7.6913    6.1464    0.0000 N   0  0  0  0  0  0  0  0  0  0  0  0
   -5.1920    1.5249    0.0000 C   0  0  0  0  0  0  0  0  0  0  0  0
   -7.2212    7.5708    0.0000 C   0  0  0  0  0  0  0  0  0  0  0  0
   -3.8946    0.7703    0.0000 N   0  0  0  0  0  0  0  0  0  0  0  0
   -2.6010   -1.4850    0.0000 C   0  0  0  0  0  0  0  0  0  0  0  0
   -6.4817    5.2810    0.0000 C   0  0  0  0  0  0  0  0  0  0  0  0
   -5.7213    7.5640    0.0000 S   0  0  0  0  0  0  0  0  0  0  0  0
   -3.8984   -0.7305    0.0000 C   0  0  0  0  0  0  0  0  0  0  0  0
    3.9044   -0.7576    0.0000 C   0  0  0  0  0  0  0  0  0  0  0  0
   -5.1882    3.0257    0.0000 N   0  0  0  0  0  0  0  0  0  0  0  0
   -2.6048   -2.9858    0.0000 N   0  0  0  0  0  0  0  0  0  0  0  0
    4.4757    5.2776    0.0000 N   0  0  0  0  0  0  0  0  0  0  0  0
    2.6018   -1.5031    0.0000 N   0  0  0  0  0  0  0  0  0  0  0  0
    5.2203    2.9895    0.0000 C   0  0  0  0  0  0  0  0  0  0  0  0
   -5.2643    6.1353    0.0000 C   0  0  0  0  0  0  0  0  0  0  0  0
    2.5951   -3.0039    0.0000 C   0  0  0  0  0  0  0  0  0  0  0  0
    6.4358    3.8464    0.0000 S   0  0  0  0  0  0  0  0  0  0  0  0
    5.9757    5.2741    0.0000 C   0  0  0  0  0  0  0  0  0  0  0  0
   -6.4855    3.7802    0.0000 C   0  0  0  0  0  0  0  0  0  0  0  0
   -0.0048   -2.9949    0.0000 C   0  0  0  0  0  0  0  0  0  0  0  0
   -1.3074   -3.7403    0.0000 C   0  0  0  0  0  0  0  0  0  0  0  0
    4.0088    3.8522    0.0000 C   0  0  0  0  0  0  0  0  0  0  0  0
    1.2925   -3.7494    0.0000 C   0  0  0  0  0  0  0  0  0  0  0  0
   -6.2329    0.9278    0.0000 O   0  0  0  0  0  0  0  0  0  0  0  0
   -1.5601   -0.8880    0.0000 O   0  0  0  0  0  0  0  0  0  0  0  0
    4.9411   -1.3619    0.0000 O   0  0  0  0  0  0  0  0  0  0  0  0
    3.8902   -3.7623    0.0000 C   0  0  0  0  0  0  0  0  0  0  0  0
    3.9110    0.7432    0.0000 O   0  0  0  0  0  0  0  0  0  0  0  0
   -8.0938    8.7888    0.0000 C   0  0  0  0  0  0  0  0  0  0  0  0
    5.2136    1.4886    0.0000 C   0  0  0  0  0  0  0  0  0  0  0  0
   -1.3157   -5.2412    0.0000 C   0  0  0  0  0  0  0  0  0  0  0  0
   -5.2018   -1.4745    0.0000 C   0  0  0  0  0  0  0  0  0  0  0  0
    3.8819   -5.2632    0.0000 C   0  0  0  0  0  0  0  0  0  0  0  0
    1.2884   -4.9494    0.0000 O   0  0  0  0  0  0  0  0  0  0  0  0
   -2.6192   -5.9852    0.0000 C   0  0  0  0  0  0  0  0  0  0  0  0
   -4.1472    3.6227    0.0000 C   0  0  0  0  0  0  0  0  0  0  0  0
   -7.5991    9.8821    0.0000 C   0  0  0  0  0  0  0  0  0  0  0  0
   -9.2880    8.6709    0.0000 C   0  0  0  0  0  0  0  0  0  0  0  0
   -6.2385   -0.8701    0.0000 C   0  0  0  0  0  0  0  0  0  0  0  0
   -5.2073   -2.6745    0.0000 C   0  0  0  0  0  0  0  0  0  0  0  0
    5.1752   -6.0230    0.0000 C   0  0  0  0  0  0  0  0  0  0  0  0
    2.5772   -6.0033    0.0000 C   0  0  0  0  0  0  0  0  0  0  0  0
   -2.6297   -7.4852    0.0000 C   0  0  0  0  0  0  0  0  0  0  0  0
   -3.9131   -5.2262    0.0000 C   0  0  0  0  0  0  0  0  0  0  0  0
   -5.2173   -5.9672    0.0000 C   0  0  0  0  0  0  0  0  0  0  0  0
    5.1638   -7.5230    0.0000 C   0  0  0  0  0  0  0  0  0  0  0  0
    2.5658   -7.5032    0.0000 C   0  0  0  0  0  0  0  0  0  0  0  0
   -3.9339   -8.2261    0.0000 C   0  0  0  0  0  0  0  0  0  0  0  0
   -5.2277   -7.4672    0.0000 C   0  0  0  0  0  0  0  0  0  0  0  0
    3.8591   -8.2631    0.0000 C   0  0  0  0  0  0  0  0  0  0  0  0
  2 10  1  0
  3  1  2  0
  4  2  1  0
  5  8  1  0
  6  1  1  0
  7  3  1  0
  8  4  1  6
  9 13  1  0
 10 19  1  0
 11  5  1  0
 12 22  1  0
 13 16  1  0
 14 30  1  0
 15  6  2  0
 16 23  1  0
 17 14  1  0
 18 17  1  0
 19  6  1  0
 21 20  1  6
 21 11  1  0
 22 14  2  0
 23 20  1  0
 24  2  2  0
 25  5  2  0
 26  9  2  0
 16 27  1  1
 28  9  1  0
 29  3  1  0
 30 28  1  0
 31 21  1  0
 32  8  1  0
 33 27  1  0
 23 34  1  1
 35 31  1  0
 36 10  1  0
 37 29  1  0
 38 29  1  0
 39 32  1  0
 40 32  1  0
 41 33  2  0
 42 33  1  0
 43 35  2  0
 44 35  1  0
 45 44  2  0
 46 41  1  0
 47 42  2  0
 48 43  1  0
 49 45  1  0
 50 47  1  0
  7 15  1  0
 48 49  2  0
 46 50  2  0
 18 12  2  0
M  END
>  <Curated_InChIs>  (22) 
InChI=1S/C37H48N6O5S2/c1-24(2)33(42-36(46)43(5)20-29-22-49-35(40-29)25(3)4)34(45)39-28(16-26-12-8-6-9-13-26)18-32(44)31(17-27-14-10-7-11-15-27)41-37(47)48-21-30-19-38-23-50-30/h6-15,19,22-25,28,31-33,44H,16-18,20-21H2,1-5H3,(H,39,45)(H,41,47)(H,42,46)

>  <threshold>  (22) 
5

>  <pchembl>  (22) 
4.71

>  <Classification>  (22) 
0

>  <source>  (22) 
chembl_28

>  <SMILES>  (22) 
CC(C)c1nc(CN(C)C(=O)N[C@H](C(=O)N[C@@H](Cc2ccccc2)C[C@H](O)[C@H](Cc2ccccc2)NC(=O)OCc2cncs2)C(C)C)cs1

>  <InChIKey>  (22) 
NCDNCNXCDXHOMX-XGKFQTDJSA-N

$$$$

     RDKit          2D

 20 21  0  0  0  0  0  0  0  0999 V2000
   -2.9419  -23.9152    0.0000 C   0  0  0  0  0  0  0  0  0  0  0  0
   -2.2255  -23.5019    0.0000 C   0  0  0  0  0  0  0  0  0  0  0  0
   -2.2284  -22.6713    0.0000 C   0  0  0  0  0  0  0  0  0  0  0  0
   -2.9437  -22.2622    0.0000 C   0  0  0  0  0  0  0  0  0  0  0  0
   -1.5154  -22.2561    0.0000 C   0  0  0  0  0  0  0  0  0  0  0  0
   -0.7994  -22.6659    0.0000 C   0  0  0  0  0  0  0  0  0  0  0  0
   -1.5186  -21.4311    0.0000 O   0  0  0  0  0  0  0  0  0  0  0  0
   -0.0865  -22.2508    0.0000 C   0  0  0  0  0  0  0  0  0  0  0  0
    0.6295  -22.6606    0.0000 C   0  0  0  0  0  0  0  0  0  0  0  0
    0.6295  -23.4844    0.0000 C   0  0  0  0  0  0  0  0  0  0  0  0
    1.3447  -23.8941    0.0000 C   0  0  0  0  0  0  0  0  0  0  0  0
    1.3370  -22.2437    0.0000 C   0  0  0  0  0  0  0  0  0  0  0  0
   -3.6593  -23.4995    0.0000 C   0  0  0  0  0  0  0  0  0  0  0  0
   -3.6555  -22.6780    0.0000 C   0  0  0  0  0  0  0  0  0  0  0  0
    2.0577  -22.6434    0.0000 C   0  0  0  0  0  0  0  0  0  0  0  0
    2.0583  -23.4746    0.0000 C   0  0  0  0  0  0  0  0  0  0  0  0
   -2.9475  -21.4372    0.0000 O   0  0  0  0  0  0  0  0  0  0  0  0
   -4.3750  -23.9098    0.0000 O   0  0  0  0  0  0  0  0  0  0  0  0
   -5.0882  -23.4951    0.0000 C   0  0  0  0  0  0  0  0  0  0  0  0
    2.7745  -23.8841    0.0000 Cl  0  0  0  0  0  0  0  0  0  0  0  0
  4 14  1  0
  9 10  2  0
  1  2  2  0
 10 11  1  0
 11 16  2  0
  3  5  1  0
 15 12  2  0
 12  9  1  0
 13 14  2  0
 13  1  1  0
  5  6  1  0
 15 16  1  0
  2  3  1  0
  5  7  2  0
  4 17  1  0
  6  8  2  0
 13 18  1  0
  3  4  2  0
 18 19  1  0
  8  9  1  0
 16 20  1  0
M  END
>  <Curated_InChIs>  (23) 
InChI=1S/C16H13ClO3/c1-20-13-7-8-14(16(19)10-13)15(18)9-4-11-2-5-12(17)6-3-11/h2-10,19H,1H3

>  <threshold>  (23) 
5

>  <pchembl>  (23) 
4.87, 4.97

>  <Classification>  (23) 
0

>  <source>  (23) 
chembl_28

>  <SMILES>  (23) 
COc1ccc(C(=O)/C=C/c2ccc(Cl)cc2)c(O)c1

>  <InChIKey>  (23) 
PSHLSUYKYJMBFH-RUDMXATFSA-N

$$$$

     RDKit          2D

 40 43  0  0  0  0  0  0  0  0999 V2000
    7.6000   -2.8000    0.0000 N   0  0  0  0  0  0  0  0  0  0  0  0
    8.2417   -2.4250    0.0000 C   0  0  0  0  0  0  0  0  0  0  0  0
    4.5417   -2.4542    0.0000 C   0  0  0  0  0  0  0  0  0  0  0  0
    8.2417   -1.6667    0.0000 C   0  0  0  0  0  0  0  0  0  0  0  0
    5.1792   -2.8000    0.0000 N   0  0  0  0  0  0  0  0  0  0  0  0
    3.8917   -2.8125    0.0000 C   0  0  0  0  0  0  0  0  0  0  0  0
    8.8292   -2.8000    0.0000 C   0  0  0  0  0  0  0  0  0  0  0  0
    7.0167   -2.4542    0.0000 C   0  0  0  0  0  0  0  0  0  0  0  0
    3.2542   -2.4542    0.0000 C   0  0  0  0  0  0  0  0  0  0  0  0
    7.5875   -3.4917    0.0000 C   0  0  0  0  0  0  0  0  0  0  0  0
    5.8042   -2.4542    0.0000 C   0  0  0  0  0  0  0  0  0  0  0  0
    8.8167   -1.3167    0.0000 N   0  0  0  0  0  0  0  0  0  0  0  0
    6.4250   -2.8000    0.0000 C   0  0  0  0  0  0  0  0  0  0  0  0
    8.8292   -3.5042    0.0000 C   0  0  0  0  0  0  0  0  0  0  0  0
    8.2292   -3.8667    0.0000 C   0  0  0  0  0  0  0  0  0  0  0  0
    4.5417   -1.7417    0.0000 O   0  0  0  0  0  0  0  0  0  0  0  0
    7.6250   -1.3167    0.0000 O   0  0  0  0  0  0  0  0  0  0  0  0
    2.6250   -2.8125    0.0000 C   0  0  0  0  0  0  0  0  0  0  0  0
    5.8042   -1.7625    0.0000 C   0  0  0  0  0  0  0  0  0  0  0  0
    9.4042   -1.6417    0.0000 C   0  0  0  0  0  0  0  0  0  0  0  0
    6.3917   -1.4000    0.0000 S   0  0  0  0  0  0  0  0  0  0  0  0
    6.4250   -3.5167    0.0000 O   0  0  0  0  0  0  0  0  0  0  0  0
    6.3917   -0.7042    0.0000 C   0  0  0  0  0  0  0  0  0  0  0  0
    1.9917   -2.4542    0.0000 O   0  0  0  0  0  0  0  0  0  0  0  0
    3.8917   -3.5417    0.0000 C   0  0  0  0  0  0  0  0  0  0  0  0
    3.2542   -1.7625    0.0000 C   0  0  0  0  0  0  0  0  0  0  0  0
    3.2542   -3.9250    0.0000 C   0  0  0  0  0  0  0  0  0  0  0  0
    2.6250   -3.5417    0.0000 C   0  0  0  0  0  0  0  0  0  0  0  0
    9.4625   -3.8417    0.0000 C   0  0  0  0  0  0  0  0  0  0  0  0
    8.2292   -4.5750    0.0000 C   0  0  0  0  0  0  0  0  0  0  0  0
    9.7542   -2.2542    0.0000 C   0  0  0  0  0  0  0  0  0  0  0  0
   10.0167   -1.3167    0.0000 C   0  0  0  0  0  0  0  0  0  0  0  0
    9.0500   -2.2542    0.0000 C   0  0  0  0  0  0  0  0  0  0  0  0
    5.8000   -0.3417    0.0000 C   0  0  0  0  0  0  0  0  0  0  0  0
    6.9667   -0.3417    0.0000 C   0  0  0  0  0  0  0  0  0  0  0  0
    9.4625   -4.5750    0.0000 C   0  0  0  0  0  0  0  0  0  0  0  0
    8.8500   -4.9292    0.0000 C   0  0  0  0  0  0  0  0  0  0  0  0
    6.9667    0.3208    0.0000 C   0  0  0  0  0  0  0  0  0  0  0  0
    5.8000    0.3208    0.0000 C   0  0  0  0  0  0  0  0  0  0  0  0
    6.3917    0.6750    0.0000 C   0  0  0  0  0  0  0  0  0  0  0  0
  2  1  1  0
  3  5  1  0
  2  4  1  6
  5 11  1  0
  6  3  1  0
  7  2  1  0
  8  1  1  0
  9  6  2  0
 10  1  1  0
 11 13  1  0
 12  4  1  0
 13  8  1  0
 14 15  1  0
 15 10  1  6
 16  3  2  0
 17  4  2  0
 18  9  1  0
 11 19  1  1
 20 12  1  0
 21 19  1  0
 13 22  1  1
 23 21  1  0
 24 18  1  0
 25  6  1  0
 26  9  1  0
 27 25  2  0
 28 18  2  0
 14 29  1  6
 30 15  1  0
 31 20  1  0
 32 20  1  0
 33 20  1  0
 34 23  2  0
 35 23  1  0
 36 37  1  0
 37 30  1  0
 38 35  2  0
 39 34  1  0
 40 39  2  0
 14  7  1  0
 36 29  1  0
 27 28  1  0
 40 38  1  0
M  END
>  <Curated_InChIs>  (24) 
InChI=1S/C32H45N3O4S/c1-21-25(15-10-16-28(21)36)30(38)33-26(20-40-24-13-6-5-7-14-24)29(37)19-35-18-23-12-9-8-11-22(23)17-27(35)31(39)34-32(2,3)4/h5-7,10,13-16,22-23,26-27,29,36-37H,8-9,11-12,17-20H2,1-4H3,(H,33,38)(H,34,39)

>  <threshold>  (24) 
5

>  <pchembl>  (24) 
4.9

>  <Classification>  (24) 
0

>  <source>  (24) 
chembl_28

>  <SMILES>  (24) 
Cc1c(O)cccc1C(=O)N[C@@H](CSc1ccccc1)[C@H](O)CN1C[C@H]2CCCC[C@H]2C[C@H]1C(=O)NC(C)(C)C

>  <InChIKey>  (24) 
QAGYKUNXZHXKMR-HKWSIXNMSA-N

$$$$

     RDKit          2D

 39 42  0  0  0  0  0  0  0  0999 V2000
    3.5037   -4.0226    0.0000 C   0  0  0  0  0  0  0  0  0  0  0  0
    4.2134   -3.6132    0.0000 C   0  0  0  0  0  0  0  0  0  0  0  0
    4.2106   -2.7905    0.0000 C   0  0  0  0  0  0  0  0  0  0  0  0
    3.5020   -2.3852    0.0000 C   0  0  0  0  0  0  0  0  0  0  0  0
    2.7957   -3.6136    0.0000 C   0  0  0  0  0  0  0  0  0  0  0  0
    2.7924   -2.7971    0.0000 C   0  0  0  0  0  0  0  0  0  0  0  0
    2.0148   -2.5479    0.0000 C   0  0  0  0  0  0  0  0  0  0  0  0
    1.5375   -3.2105    0.0000 O   0  0  0  0  0  0  0  0  0  0  0  0
    2.0202   -3.8690    0.0000 C   0  0  0  0  0  0  0  0  0  0  0  0
    1.7592   -1.7717    0.0000 O   0  0  0  0  0  0  0  0  0  0  0  0
    4.9218   -4.0206    0.0000 N   0  0  0  0  0  0  0  0  0  0  0  0
    5.6288   -3.6109    0.0000 C   0  0  0  0  0  0  0  0  0  0  0  0
    6.3372   -4.0184    0.0000 C   0  0  0  0  0  0  0  0  0  0  0  0
    5.6275   -2.7937    0.0000 O   0  0  0  0  0  0  0  0  0  0  0  0
    7.0442   -3.6087    0.0000 O   0  0  0  0  0  0  0  0  0  0  0  0
    7.7526   -4.0162    0.0000 C   0  0  0  0  0  0  0  0  0  0  0  0
    7.7495   -4.8341    0.0000 C   0  0  0  0  0  0  0  0  0  0  0  0
    8.4570   -5.2415    0.0000 C   0  0  0  0  0  0  0  0  0  0  0  0
    9.1650   -4.8317    0.0000 C   0  0  0  0  0  0  0  0  0  0  0  0
    9.1611   -4.0103    0.0000 C   0  0  0  0  0  0  0  0  0  0  0  0
    8.4530   -3.6066    0.0000 C   0  0  0  0  0  0  0  0  0  0  0  0
    9.8739   -5.2382    0.0000 C   0  0  0  0  0  0  0  0  0  0  0  0
    9.8763   -6.0554    0.0000 O   0  0  0  0  0  0  0  0  0  0  0  0
   10.5804   -4.8276    0.0000 C   0  0  0  0  0  0  0  0  0  0  0  0
   11.2893   -5.2341    0.0000 C   0  0  0  0  0  0  0  0  0  0  0  0
   11.9959   -4.8235    0.0000 C   0  0  0  0  0  0  0  0  0  0  0  0
   12.7007   -5.2334    0.0000 C   0  0  0  0  0  0  0  0  0  0  0  0
   13.4068   -4.8234    0.0000 C   0  0  0  0  0  0  0  0  0  0  0  0
   13.4048   -4.0053    0.0000 C   0  0  0  0  0  0  0  0  0  0  0  0
   12.6910   -3.5990    0.0000 C   0  0  0  0  0  0  0  0  0  0  0  0
   11.9879   -4.0113    0.0000 C   0  0  0  0  0  0  0  0  0  0  0  0
    7.0412   -5.2417    0.0000 O   0  0  0  0  0  0  0  0  0  0  0  0
    6.3341   -4.8322    0.0000 C   0  0  0  0  0  0  0  0  0  0  0  0
   14.1108   -3.5937    0.0000 O   0  0  0  0  0  0  0  0  0  0  0  0
   14.8202   -3.9993    0.0000 C   0  0  0  0  0  0  0  0  0  0  0  0
   12.6857   -2.7818    0.0000 O   0  0  0  0  0  0  0  0  0  0  0  0
   13.3908   -2.3687    0.0000 C   0  0  0  0  0  0  0  0  0  0  0  0
   14.1155   -5.2303    0.0000 O   0  0  0  0  0  0  0  0  0  0  0  0
   14.1174   -6.0475    0.0000 C   0  0  0  0  0  0  0  0  0  0  0  0
  5  1  2  0
  1  2  1  0
  2  3  2  0
  3  4  1  0
  4  6  2  0
  5  6  1  0
  6  7  1  0
  7  8  1  0
  8  9  1  0
  9  5  1  0
  7 10  2  0
  2 11  1  0
 11 12  1  0
 12 13  1  0
 12 14  2  0
 13 15  1  0
 15 16  1  0
 16 17  2  0
 17 18  1  0
 18 19  2  0
 19 20  1  0
 20 21  2  0
 21 16  1  0
 19 22  1  0
 22 23  2  0
 22 24  1  0
 24 25  2  0
 25 26  1  0
 26 27  2  0
 27 28  1  0
 28 29  2  0
 29 30  1  0
 30 31  2  0
 31 26  1  0
 17 32  1  0
 32 33  1  0
 29 34  1  0
 34 35  1  0
 30 36  1  0
 36 37  1  0
 28 38  1  0
 38 39  1  0
M  END
>  <Curated_InChIs>  (25) 
InChI=1S/C29H27NO9/c1-34-24-14-18(22(31)9-5-17-11-25(35-2)28(37-4)26(12-17)36-3)6-10-23(24)38-16-27(32)30-20-7-8-21-19(13-20)15-39-29(21)33/h5-14H,15-16H2,1-4H3,(H,30,32)

>  <threshold>  (25) 
5

>  <pchembl>  (25) 
4.94

>  <Classification>  (25) 
0

>  <source>  (25) 
chembl_28

>  <SMILES>  (25) 
COc1cc(C(=O)/C=C/c2cc(OC)c(OC)c(OC)c2)ccc1OCC(=O)Nc1ccc2c(c1)COC2=O

>  <InChIKey>  (25) 
QECSWQKLINLPBP-WEVVVXLNSA-N

$$$$

     RDKit          2D

 49 53  0  0  0  0  0  0  0  0999 V2000
    3.9112   12.0085    0.0000 C   0  0  0  0  0  0  0  0  0  0  0  0
    5.2100   12.7535    0.0000 C   0  0  0  0  0  0  0  0  0  0  0  0
    6.5135   11.9855    0.0000 C   0  0  0  0  0  0  0  0  0  0  0  0
    3.9159   10.4957    0.0000 C   0  0  0  0  0  0  0  0  0  0  0  0
    5.2103    9.7435    0.0000 C   0  0  0  0  0  0  0  0  0  0  0  0
    6.5091   10.4885    0.0000 C   0  0  0  0  0  0  0  0  0  0  0  0
    7.8036    9.7364    0.0000 C   0  0  0  0  0  0  0  0  0  0  0  0
    7.7992    8.2393    0.0000 C   0  0  0  0  0  0  0  0  0  0  0  0
    6.5003    7.4944    0.0000 C   0  0  0  0  0  0  0  0  0  0  0  0
    5.2059    8.2465    0.0000 N   0  0  0  0  0  0  0  0  0  0  0  0
    6.4992    5.9935    0.0000 C   0  0  0  0  0  0  0  0  0  0  0  0
    5.4593    5.3947    0.0000 O   0  0  0  0  0  0  0  0  0  0  0  0
    7.7966    3.7404    0.0000 C   0  0  0  0  0  0  0  0  0  0  0  0
    9.0953    2.9882    0.0000 C   0  0  0  0  0  0  0  0  0  0  0  0
    6.4945    2.9941    0.0000 C   0  0  0  0  0  0  0  0  0  0  0  0
    5.1967    3.7478    0.0000 C   0  0  0  0  0  0  0  0  0  0  0  0
    4.1555    3.1511    0.0000 O   0  0  0  0  0  0  0  0  0  0  0  0
   10.1352    3.5870    0.0000 O   0  0  0  0  0  0  0  0  0  0  0  0
   10.3928    0.7351    0.0000 C   0  0  0  0  0  0  0  0  0  0  0  0
   11.6941    1.4828    0.0000 C   0  0  0  0  0  0  0  0  0  0  0  0
   10.3871   -0.7658    0.0000 C   0  0  0  0  0  0  0  0  0  0  0  0
    9.0850   -1.5121    0.0000 C   0  0  0  0  0  0  0  0  0  0  0  0
    9.0771   -3.0121    0.0000 C   0  0  0  0  0  0  0  0  0  0  0  0
    7.7742   -3.7553    0.0000 C   0  0  0  0  0  0  0  0  0  0  0  0
    6.4791   -2.9985    0.0000 C   0  0  0  0  0  0  0  0  0  0  0  0
    6.4869   -1.4986    0.0000 C   0  0  0  0  0  0  0  0  0  0  0  0
    7.7898   -0.7553    0.0000 C   0  0  0  0  0  0  0  0  0  0  0  0
   12.9928    0.7305    0.0000 C   0  0  0  0  0  0  0  0  0  0  0  0
   14.2941    1.4783    0.0000 N   0  0  0  0  0  0  0  0  0  0  0  0
   15.5911    0.7298    0.0000 C   0  0  0  0  0  0  0  0  0  0  0  0
   16.8960    1.4954    0.0000 C   0  0  0  0  0  0  0  0  0  0  0  0
   14.3011    2.9899    0.0000 C   0  0  0  0  0  0  0  0  0  0  0  0
   15.5968    3.7397    0.0000 C   0  0  0  0  0  0  0  0  0  0  0  0
   16.8943    2.9924    0.0000 C   0  0  0  0  0  0  0  0  0  0  0  0
   18.1901    3.7422    0.0000 C   0  0  0  0  0  0  0  0  0  0  0  0
   18.1883    5.2393    0.0000 C   0  0  0  0  0  0  0  0  0  0  0  0
   16.8909    5.9866    0.0000 C   0  0  0  0  0  0  0  0  0  0  0  0
   15.5951    5.2368    0.0000 C   0  0  0  0  0  0  0  0  0  0  0  0
   15.5894   -0.7709    0.0000 C   0  0  0  0  0  0  0  0  0  0  0  0
   16.6280   -1.3719    0.0000 O   0  0  0  0  0  0  0  0  0  0  0  0
   14.2873   -3.0214    0.0000 C   0  0  0  0  0  0  0  0  0  0  0  0
   13.2477   -3.6207    0.0000 C   0  0  0  0  0  0  0  0  0  0  0  0
   14.2864   -4.2214    0.0000 C   0  0  0  0  0  0  0  0  0  0  0  0
   15.3260   -3.6223    0.0000 C   0  0  0  0  0  0  0  0  0  0  0  0
    7.7978    5.2412    0.0000 N   0  0  0  0  0  0  0  0  0  0  0  0
    5.2001    4.9478    0.0000 N   0  0  0  0  0  0  0  0  0  0  0  0
    9.0941    1.4873    0.0000 N   0  0  0  0  0  0  0  0  0  0  0  0
   11.6962    2.6828    0.0000 O   0  0  0  0  0  0  0  0  0  0  0  0
   14.2892   -1.5205    0.0000 N   0  0  0  0  0  0  0  0  0  0  0  0
  9 10  2  0
 10  5  1  0
  9 11  1  0
 11 12  2  0
 13 14  1  0
 13 15  1  6
 15 16  1  0
 16 17  2  0
 14 18  2  0
 19 20  1  0
 19 21  1  6
 21 22  1  0
 22 23  2  0
 23 24  1  0
 24 25  2  0
 25 26  1  0
 26 27  2  0
 27 22  1  0
 20 28  1  0
 28 29  1  0
 29 30  1  0
 29 32  1  0
 30 31  1  0
 34 31  1  1
 33 32  1  1
 33 34  1  0
 33 38  1  0
 34 35  1  0
 35 36  1  0
 36 37  1  0
 37 38  1  0
 30 39  1  1
 39 40  2  0
 41 42  1  0
 41 43  1  0
 41 44  1  0
  1  2  2  0
  2  3  1  0
  3  6  2  0
  5  4  2  0
 11 45  1  0
 45 13  1  0
 14 47  1  0
 47 19  1  0
 20 48  1  6
 16 46  1  0
 39 49  1  0
 49 41  1  0
  4  1  1  0
  5  6  1  0
  6  7  1  0
  7  8  2  0
  8  9  1  0
M  END
>  <Curated_InChIs>  (26) 
InChI=1S/C38H50N6O5/c1-38(2,3)43-37(49)32-20-26-14-7-8-15-27(26)22-44(32)23-33(45)30(19-24-11-5-4-6-12-24)41-36(48)31(21-34(39)46)42-35(47)29-18-17-25-13-9-10-16-28(25)40-29/h4-6,9-13,16-18,26-27,30-33,45H,7-8,14-15,19-23H2,1-3H3,(H2,39,46)(H,41,48)(H,42,47)(H,43,49)

>  <threshold>  (26) 
5

>  <pchembl>  (26) 
4.71

>  <Classification>  (26) 
0

>  <source>  (26) 
chembl_28

>  <SMILES>  (26) 
CC(C)(C)NC(=O)[C@@H]1C[C@@H]2CCCC[C@@H]2CN1C[C@@H](O)[C@H](Cc1ccccc1)NC(=O)[C@H](CC(N)=O)NC(=O)c1ccc2ccccc2n1

>  <InChIKey>  (26) 
QWAXKHKRTORLEM-UGJKXSETSA-N

$$$$

     RDKit          2D

 30 33  0  0  0  0  0  0  0  0999 V2000
    3.1250    1.5250    0.0000 C   0  0  0  0  0  0  0  0  0  0  0  0
    2.4042    1.9375    0.0000 C   0  0  0  0  0  0  0  0  0  0  0  0
    3.8375    1.9417    0.0000 C   0  0  0  0  0  0  0  0  0  0  0  0
    1.6958    0.7000    0.0000 C   0  0  0  0  0  0  0  0  0  0  0  0
    3.1208    0.6958    0.0000 N   0  0  0  0  0  0  0  0  0  0  0  0
    4.5542    1.5250    0.0000 N   0  0  0  0  0  0  0  0  0  0  0  0
    1.6917    1.5208    0.0000 C   0  0  0  0  0  0  0  0  0  0  0  0
    2.4125    0.2875    0.0000 C   0  0  0  0  0  0  0  0  0  0  0  0
    4.5500    0.6917    0.0000 C   0  0  0  0  0  0  0  0  0  0  0  0
    0.9833    0.2875    0.0000 C   0  0  0  0  0  0  0  0  0  0  0  0
    3.8375    0.2833    0.0000 C   0  0  0  0  0  0  0  0  0  0  0  0
    2.4000    2.7625    0.0000 O   0  0  0  0  0  0  0  0  0  0  0  0
    0.2667    0.7000    0.0000 N   0  0  0  0  0  0  0  0  0  0  0  0
   -1.8792    0.2833    0.0000 C   0  0  0  0  0  0  0  0  0  0  0  0
   -1.1625    0.6958    0.0000 C   0  0  0  0  0  0  0  0  0  0  0  0
    3.8375    2.7667    0.0000 O   0  0  0  0  0  0  0  0  0  0  0  0
    5.2667    0.2750    0.0000 O   0  0  0  0  0  0  0  0  0  0  0  0
   -2.5917    0.6958    0.0000 C   0  0  0  0  0  0  0  0  0  0  0  0
    5.2750    1.9417    0.0000 C   0  0  0  0  0  0  0  0  0  0  0  0
    0.9750    1.9333    0.0000 O   0  0  0  0  0  0  0  0  0  0  0  0
   -0.4458    0.2833    0.0000 C   0  0  0  0  0  0  0  0  0  0  0  0
    0.9833   -0.5375    0.0000 O   0  0  0  0  0  0  0  0  0  0  0  0
   -1.1625    1.5250    0.0000 C   0  0  0  0  0  0  0  0  0  0  0  0
   -2.5917    1.5250    0.0000 C   0  0  0  0  0  0  0  0  0  0  0  0
   -1.8792   -0.5417    0.0000 F   0  0  0  0  0  0  0  0  0  0  0  0
    5.9917    0.6875    0.0000 C   0  0  0  0  0  0  0  0  0  0  0  0
    5.9958    1.5208    0.0000 C   0  0  0  0  0  0  0  0  0  0  0  0
   -1.8792    1.9375    0.0000 C   0  0  0  0  0  0  0  0  0  0  0  0
   -3.3042    1.9333    0.0000 F   0  0  0  0  0  0  0  0  0  0  0  0
    5.2667    2.7708    0.0000 C   0  0  0  0  0  0  0  0  0  0  0  0
  2  1  2  0
  3  1  1  0
  4  8  2  0
  5  1  1  0
  6  3  1  0
  7  2  1  0
  8  5  1  0
  9  6  1  0
 10  4  1  0
 11  5  1  0
 12  2  1  0
 13 10  1  0
 14 15  2  0
 15 21  1  0
 16  3  2  0
 17  9  1  0
 18 14  1  0
 19  6  1  0
 20  7  2  0
 21 13  1  0
 22 10  2  0
 23 15  1  0
 24 28  1  0
 25 14  1  0
 26 27  1  0
 27 19  1  0
 28 23  2  0
 29 24  1  0
 19 30  1  6
  9 11  1  1
  4  7  1  0
 26 17  1  0
 18 24  2  0
M  END
>  <Curated_InChIs>  (27) 
InChI=1S/C20H19F2N3O5/c1-10-4-5-30-15-9-24-8-13(17(26)18(27)16(24)20(29)25(10)15)19(28)23-7-11-2-3-12(21)6-14(11)22/h2-3,6,8,10,15,27H,4-5,7,9H2,1H3,(H,23,28)

>  <threshold>  (27) 
5

>  <pchembl>  (27) 
4.17

>  <Classification>  (27) 
0

>  <source>  (27) 
chembl_28

>  <SMILES>  (27) 
C[C@@H]1CCO[C@H]2Cn3cc(C(=O)NCc4ccc(F)cc4F)c(=O)c(O)c3C(=O)N21

>  <InChIKey>  (27) 
RHWKPHLQXYSBKR-BMIGLBTASA-N

$$$$

     RDKit          2D

 16 17  0  0  0  0  0  0  0  0999 V2000
   -5.4601  -10.3946    0.0000 C   0  0  0  0  0  0  0  0  0  0  0  0
   -5.4614  -11.2221    0.0000 C   0  0  0  0  0  0  0  0  0  0  0  0
   -4.7484  -11.6350    0.0000 C   0  0  0  0  0  0  0  0  0  0  0  0
   -4.0291  -11.2216    0.0000 C   0  0  0  0  0  0  0  0  0  0  0  0
   -4.0323  -10.3905    0.0000 C   0  0  0  0  0  0  0  0  0  0  0  0
   -4.7504   -9.9818    0.0000 C   0  0  0  0  0  0  0  0  0  0  0  0
   -3.3143  -11.6335    0.0000 C   0  0  0  0  0  0  0  0  0  0  0  0
   -3.3136  -12.4584    0.0000 O   0  0  0  0  0  0  0  0  0  0  0  0
   -2.6003  -11.2203    0.0000 C   0  0  0  0  0  0  0  0  0  0  0  0
   -1.8854  -11.6321    0.0000 C   0  0  0  0  0  0  0  0  0  0  0  0
   -3.3199   -9.9745    0.0000 O   0  0  0  0  0  0  0  0  0  0  0  0
   -1.1713  -11.2190    0.0000 C   0  0  0  0  0  0  0  0  0  0  0  0
   -0.4134  -11.5512    0.0000 C   0  0  0  0  0  0  0  0  0  0  0  0
    0.1380  -10.9376    0.0000 C   0  0  0  0  0  0  0  0  0  0  0  0
   -0.2751  -10.2235    0.0000 C   0  0  0  0  0  0  0  0  0  0  0  0
   -1.0818  -10.3959    0.0000 O   0  0  0  0  0  0  0  0  0  0  0  0
  7  8  2  0
  7  9  1  0
  4  5  2  0
  9 10  2  0
  2  3  2  0
  5 11  1  0
  5  6  1  0
 10 12  1  0
 12 13  2  0
  6  1  2  0
  1  2  1  0
  4  7  1  0
  3  4  1  0
 13 14  1  0
 14 15  2  0
 15 16  1  0
 16 12  1  0
M  END
>  <Curated_InChIs>  (28) 
InChI=1S/C13H10O3/c14-12-6-2-1-5-11(12)13(15)8-7-10-4-3-9-16-10/h1-9,14H

>  <threshold>  (28) 
5

>  <pchembl>  (28) 
4.79

>  <Classification>  (28) 
0

>  <source>  (28) 
chembl_28

>  <SMILES>  (28) 
O=C(/C=C/c1ccco1)c1ccccc1O

>  <InChIKey>  (28) 
RTGXXLFEOHIIBM-BQYQJAHWSA-N

$$$$

     RDKit          2D

 16 17  0  0  0  0  0  0  0  0999 V2000
   10.6427  -13.3887    0.0000 C   0  0  0  0  0  0  0  0  0  0  0  0
   10.6416  -14.2082    0.0000 C   0  0  0  0  0  0  0  0  0  0  0  0
   11.3496  -14.6172    0.0000 C   0  0  0  0  0  0  0  0  0  0  0  0
   12.0593  -14.2078    0.0000 C   0  0  0  0  0  0  0  0  0  0  0  0
   12.0564  -13.3851    0.0000 C   0  0  0  0  0  0  0  0  0  0  0  0
   11.3478  -12.9798    0.0000 C   0  0  0  0  0  0  0  0  0  0  0  0
   12.7626  -12.9738    0.0000 C   0  0  0  0  0  0  0  0  0  0  0  0
   13.4718  -13.3798    0.0000 C   0  0  0  0  0  0  0  0  0  0  0  0
   12.7595  -12.1566    0.0000 O   0  0  0  0  0  0  0  0  0  0  0  0
   14.1780  -12.9685    0.0000 C   0  0  0  0  0  0  0  0  0  0  0  0
   14.8873  -13.3744    0.0000 C   0  0  0  0  0  0  0  0  0  0  0  0
   14.9781  -14.1861    0.0000 S   0  0  0  0  0  0  0  0  0  0  0  0
   15.7781  -14.3530    0.0000 C   0  0  0  0  0  0  0  0  0  0  0  0
   16.1840  -13.6437    0.0000 C   0  0  0  0  0  0  0  0  0  0  0  0
   15.6349  -13.0386    0.0000 C   0  0  0  0  0  0  0  0  0  0  0  0
    9.9335  -14.6163    0.0000 O   0  0  0  0  0  0  0  0  0  0  0  0
  1  2  2  0
  2  3  1  0
  3  4  2  0
  4  5  1  0
  5  6  2  0
  6  1  1  0
  5  7  1  0
  7  8  1  0
  7  9  2  0
  8 10  2  0
 10 11  1  0
 11 12  1  0
 12 13  1  0
 13 14  2  0
 14 15  1  0
 15 11  2  0
  2 16  1  0
M  END
>  <Curated_InChIs>  (29) 
InChI=1S/C13H10O2S/c14-11-5-3-10(4-6-11)13(15)8-7-12-2-1-9-16-12/h1-9,14H

>  <threshold>  (29) 
5

>  <pchembl>  (29) 
4.74

>  <Classification>  (29) 
0

>  <source>  (29) 
chembl_28

>  <SMILES>  (29) 
O=C(/C=C/c1cccs1)c1ccc(O)cc1

>  <InChIKey>  (29) 
SZSNJSQYWPJMKW-BQYQJAHWSA-N

$$$$

     RDKit          2D

 27 30  0  0  0  0  0  0  0  0999 V2000
   14.1467  -26.3358    0.0000 C   0  0  0  0  0  0  0  0  0  0  0  0
   14.1456  -27.1553    0.0000 C   0  0  0  0  0  0  0  0  0  0  0  0
   14.8536  -27.5643    0.0000 C   0  0  0  0  0  0  0  0  0  0  0  0
   14.8518  -25.9269    0.0000 C   0  0  0  0  0  0  0  0  0  0  0  0
   15.5605  -26.3322    0.0000 C   0  0  0  0  0  0  0  0  0  0  0  0
   15.5612  -27.1512    0.0000 C   0  0  0  0  0  0  0  0  0  0  0  0
   16.2697  -27.5583    0.0000 N   0  0  0  0  0  0  0  0  0  0  0  0
   16.9780  -27.1475    0.0000 C   0  0  0  0  0  0  0  0  0  0  0  0
   16.9733  -26.3253    0.0000 N   0  0  0  0  0  0  0  0  0  0  0  0
   16.2642  -25.9220    0.0000 C   0  0  0  0  0  0  0  0  0  0  0  0
   17.6914  -27.5505    0.0000 C   0  0  0  0  0  0  0  0  0  0  0  0
   16.2598  -25.1048    0.0000 S   0  0  0  0  0  0  0  0  0  0  0  0
   16.9654  -24.6925    0.0000 C   0  0  0  0  0  0  0  0  0  0  0  0
   17.6707  -25.1007    0.0000 C   0  0  0  0  0  0  0  0  0  0  0  0
   18.3757  -24.6890    0.0000 C   0  0  0  0  0  0  0  0  0  0  0  0
   18.3718  -23.8710    0.0000 C   0  0  0  0  0  0  0  0  0  0  0  0
   17.6570  -23.4663    0.0000 C   0  0  0  0  0  0  0  0  0  0  0  0
   16.9548  -23.8803    0.0000 C   0  0  0  0  0  0  0  0  0  0  0  0
   17.6942  -28.3697    0.0000 C   0  0  0  0  0  0  0  0  0  0  0  0
   18.4068  -28.7726    0.0000 C   0  0  0  0  0  0  0  0  0  0  0  0
   19.1136  -28.3562    0.0000 C   0  0  0  0  0  0  0  0  0  0  0  0
   19.1032  -27.5327    0.0000 C   0  0  0  0  0  0  0  0  0  0  0  0
   18.3900  -27.1334    0.0000 C   0  0  0  0  0  0  0  0  0  0  0  0
   19.0854  -25.0942    0.0000 C   0  0  0  0  0  0  0  0  0  0  0  0
   19.0893  -25.9114    0.0000 F   0  0  0  0  0  0  0  0  0  0  0  0
   19.7911  -24.6822    0.0000 F   0  0  0  0  0  0  0  0  0  0  0  0
   19.7901  -25.5021    0.0000 F   0  0  0  0  0  0  0  0  0  0  0  0
  1  2  2  0
  2  3  1  0
  3  6  2  0
  5  4  2  0
  4  1  1  0
  5  6  1  0
  6  7  1  0
  7  8  2  0
  8  9  1  0
  9 10  2  0
 10  5  1  0
  8 11  1  0
 10 12  1  0
 12 13  1  0
 13 14  2  0
 14 15  1  0
 15 16  2  0
 16 17  1  0
 17 18  2  0
 18 13  1  0
 11 19  2  0
 19 20  1  0
 20 21  2  0
 21 22  1  0
 22 23  2  0
 23 11  1  0
 15 24  1  0
 24 25  1  0
 24 26  1  0
 24 27  1  0
M  END
>  <Curated_InChIs>  (30) 
InChI=1S/C21H13F3N2S/c22-21(23,24)15-9-6-10-16(13-15)27-20-17-11-4-5-12-18(17)25-19(26-20)14-7-2-1-3-8-14/h1-13H

>  <threshold>  (30) 
5

>  <pchembl>  (30) 
4.83

>  <Classification>  (30) 
0

>  <source>  (30) 
chembl_28

>  <SMILES>  (30) 
FC(F)(F)c1cccc(Sc2nc(-c3ccccc3)nc3ccccc23)c1

>  <InChIKey>  (30) 
TXXAVMLDHQSZSZ-UHFFFAOYSA-N

$$$$

     RDKit          2D

 22 23  0  0  0  0  0  0  0  0999 V2000
   -0.8273   -3.2529    0.0000 C   0  0  0  0  0  0  0  0  0  0  0  0
   -1.5418   -3.6654    0.0000 C   0  0  0  0  0  0  0  0  0  0  0  0
   -1.5418   -4.4904    0.0000 C   0  0  0  0  0  0  0  0  0  0  0  0
   -0.8273   -4.9029    0.0000 C   0  0  0  0  0  0  0  0  0  0  0  0
   -0.1128   -4.4904    0.0000 C   0  0  0  0  0  0  0  0  0  0  0  0
   -0.1128   -3.6654    0.0000 C   0  0  0  0  0  0  0  0  0  0  0  0
   -0.8273   -2.4279    0.0000 O   0  0  0  0  0  0  0  0  0  0  0  0
   -0.8273   -5.7279    0.0000 C   0  0  0  0  0  0  0  0  0  0  0  0
   -1.5418   -6.1404    0.0000 C   0  0  0  0  0  0  0  0  0  0  0  0
   -1.5418   -6.9654    0.0000 N   0  0  0  0  0  0  0  0  0  0  0  0
   -0.8273   -7.3779    0.0000 C   0  0  0  0  0  0  0  0  0  0  0  0
   -0.8273   -8.2029    0.0000 C   0  0  0  0  0  0  0  0  0  0  0  0
   -0.1128   -6.9654    0.0000 O   0  0  0  0  0  0  0  0  0  0  0  0
   -0.1128   -8.6154    0.0000 C   0  0  0  0  0  0  0  0  0  0  0  0
   -0.1128   -9.4404    0.0000 C   0  0  0  0  0  0  0  0  0  0  0  0
    0.6016   -9.8529    0.0000 C   0  0  0  0  0  0  0  0  0  0  0  0
    0.6016  -10.6779    0.0000 C   0  0  0  0  0  0  0  0  0  0  0  0
   -0.1128  -11.0904    0.0000 C   0  0  0  0  0  0  0  0  0  0  0  0
   -0.8273  -10.6779    0.0000 C   0  0  0  0  0  0  0  0  0  0  0  0
   -0.8273   -9.8529    0.0000 C   0  0  0  0  0  0  0  0  0  0  0  0
   -1.5418   -8.6154    0.0000 O   0  0  0  0  0  0  0  0  0  0  0  0
   -1.5418   -9.4404    0.0000 C   0  0  0  0  0  0  0  0  0  0  0  0
 10 11  1  0
  5  6  1  0
 11 12  1  0
  6  1  2  0
 11 13  2  0
  1  2  1  0
 12 14  2  0
  1  7  1  0
 14 15  1  0
  3  4  1  0
 15 16  2  0
  4  8  1  0
 16 17  1  0
 17 18  2  0
  8  9  2  0
 18 19  1  0
  4  5  2  0
 19 20  2  0
 20 15  1  0
  9 10  1  0
 12 21  1  0
  2  3  2  0
 21 22  1  0
M  END
>  <Curated_InChIs>  (31) 
InChI=1S/C18H17NO3/c1-22-17(13-15-5-3-2-4-6-15)18(21)19-12-11-14-7-9-16(20)10-8-14/h2-13,20H,1H3,(H,19,21)

>  <threshold>  (31) 
5

>  <pchembl>  (31) 
4.81

>  <Classification>  (31) 
0

>  <source>  (31) 
chembl_28

>  <SMILES>  (31) 
CO/C(=C\c1ccccc1)C(=O)N/C=C/c1ccc(O)cc1

>  <InChIKey>  (31) 
UGNKBZMQVZDJGA-VBEVGYOXSA-N

$$$$

     RDKit          2D

 37 42  0  0  0  0  0  0  0  0999 V2000
   16.3655  -15.0436    0.0000 C   0  0  0  0  0  0  0  0  0  0  0  0
   15.7912  -14.7102    0.0000 C   0  0  0  0  0  0  0  0  0  0  0  0
   15.7912  -13.8781    0.0000 C   0  0  0  0  0  0  0  0  0  0  0  0
   15.0733  -13.4640    0.0000 C   0  0  0  0  0  0  0  0  0  0  0  0
   15.0733  -12.6325    0.0000 C   0  0  0  0  0  0  0  0  0  0  0  0
   14.3573  -12.2168    0.0000 C   0  0  0  0  0  0  0  0  0  0  0  0
   14.3573  -11.3847    0.0000 N   0  0  0  0  0  0  0  0  0  0  0  0
   15.0724  -10.9714    0.0000 C   0  0  0  0  0  0  0  0  0  0  0  0
   15.0724  -10.1399    0.0000 C   0  0  0  0  0  0  0  0  0  0  0  0
   14.3536   -9.7257    0.0000 N   0  0  0  0  0  0  0  0  0  0  0  0
   14.3536   -8.8977    0.0000 C   0  0  0  0  0  0  0  0  0  0  0  0
   13.6310   -8.4806    0.0000 C   0  0  0  0  0  0  0  0  0  0  0  0
   13.6310   -7.6526    0.0000 O   0  0  0  0  0  0  0  0  0  0  0  0
   12.9024   -7.2396    0.0000 C   0  0  0  0  0  0  0  0  0  0  0  0
   12.1870   -7.6563    0.0000 C   0  0  0  0  0  0  0  0  0  0  0  0
   11.4680   -7.2457    0.0000 C   0  0  0  0  0  0  0  0  0  0  0  0
   11.4680   -6.4142    0.0000 C   0  0  0  0  0  0  0  0  0  0  0  0
   12.1793   -5.9975    0.0000 C   0  0  0  0  0  0  0  0  0  0  0  0
   12.1793   -5.1660    0.0000 C   0  0  0  0  0  0  0  0  0  0  0  0
   12.8906   -4.7493    0.0000 C   0  0  0  0  0  0  0  0  0  0  0  0
   13.6136   -5.1599    0.0000 C   0  0  0  0  0  0  0  0  0  0  0  0
   13.6136   -5.9914    0.0000 C   0  0  0  0  0  0  0  0  0  0  0  0
   12.9024   -6.4081    0.0000 C   0  0  0  0  0  0  0  0  0  0  0  0
   13.6344  -10.1431    0.0000 C   0  0  0  0  0  0  0  0  0  0  0  0
   13.6344  -10.9705    0.0000 C   0  0  0  0  0  0  0  0  0  0  0  0
   13.6372  -12.6325    0.0000 N   0  0  0  0  0  0  0  0  0  0  0  0
   12.8471  -12.3742    0.0000 N   0  0  0  0  0  0  0  0  0  0  0  0
   12.3575  -13.0483    0.0000 C   0  0  0  0  0  0  0  0  0  0  0  0
   11.5333  -13.1329    0.0000 N   0  0  0  0  0  0  0  0  0  0  0  0
   11.1977  -13.8921    0.0000 C   0  0  0  0  0  0  0  0  0  0  0  0
   10.5352  -13.9610    0.0000 C   0  0  0  0  0  0  0  0  0  0  0  0
   11.6832  -14.5620    0.0000 C   0  0  0  0  0  0  0  0  0  0  0  0
   12.5082  -14.4769    0.0000 C   0  0  0  0  0  0  0  0  0  0  0  0
   12.9017  -15.0152    0.0000 C   0  0  0  0  0  0  0  0  0  0  0  0
   12.8471  -13.7182    0.0000 C   0  0  0  0  0  0  0  0  0  0  0  0
   13.6372  -13.4640    0.0000 C   0  0  0  0  0  0  0  0  0  0  0  0
   14.3573  -13.8798    0.0000 N   0  0  0  0  0  0  0  0  0  0  0  0
  1  2  1  0
  2  3  1  0
  3  4  1  0
  4  5  1  0
  5  6  2  0
  6  7  1  0
  7  8  1  0
  8  9  1  0
  9 10  1  0
 10 11  1  0
 11 12  1  0
 12 13  1  0
 13 14  1  0
 14 15  2  0
 15 16  1  0
 16 17  2  0
 17 18  1  0
 18 19  2  0
 19 20  1  0
 20 21  2  0
 21 22  1  0
 22 23  2  0
 23 14  1  0
 23 18  1  0
 10 24  1  0
 24 25  1  0
 25  7  1  0
  6 26  1  0
 26 27  1  0
 27 28  2  0
 28 29  1  0
 29 30  2  0
 30 31  1  0
 30 32  1  0
 32 33  2  0
 33 34  1  0
 33 35  1  0
 35 28  1  0
 35 36  2  0
 36 26  1  0
 36 37  1  0
 37  4  2  0
M  END
>  <Curated_InChIs>  (32) 
InChI=1S/C30H34N6O/c1-4-8-24-20-27(36-30(32-24)28-21(2)19-22(3)31-29(28)33-36)35-15-13-34(14-16-35)17-18-37-26-12-7-10-23-9-5-6-11-25(23)26/h5-7,9-12,19-20H,4,8,13-18H2,1-3H3

>  <threshold>  (32) 
5

>  <pchembl>  (32) 
4.93

>  <Classification>  (32) 
0

>  <source>  (32) 
chembl_28

>  <SMILES>  (32) 
CCCc1cc(N2CCN(CCOc3cccc4ccccc34)CC2)n2nc3nc(C)cc(C)c3c2n1

>  <InChIKey>  (32) 
UQNSXMUYSZHSLG-UHFFFAOYSA-N

$$$$

     RDKit          2D

 25 26  0  0  0  0  0  0  0  0999 V2000
    7.4131  -14.0085    0.0000 C   0  0  0  0  0  0  0  0  0  0  0  0
    6.6987  -13.5960    0.0000 C   0  0  0  0  0  0  0  0  0  0  0  0
    6.6987  -12.7710    0.0000 C   0  0  0  0  0  0  0  0  0  0  0  0
    7.4131  -12.3585    0.0000 C   0  0  0  0  0  0  0  0  0  0  0  0
    8.1276  -12.7710    0.0000 C   0  0  0  0  0  0  0  0  0  0  0  0
    8.1276  -13.5960    0.0000 C   0  0  0  0  0  0  0  0  0  0  0  0
    7.4131  -14.8335    0.0000 O   0  0  0  0  0  0  0  0  0  0  0  0
    7.4131  -11.5335    0.0000 C   0  0  0  0  0  0  0  0  0  0  0  0
    8.1276  -11.1210    0.0000 C   0  0  0  0  0  0  0  0  0  0  0  0
    8.1276  -10.2960    0.0000 N   0  0  0  0  0  0  0  0  0  0  0  0
    7.4131   -9.8835    0.0000 C   0  0  0  0  0  0  0  0  0  0  0  0
    7.4131   -9.0585    0.0000 C   0  0  0  0  0  0  0  0  0  0  0  0
    6.6987  -10.2960    0.0000 O   0  0  0  0  0  0  0  0  0  0  0  0
    6.6987   -8.6460    0.0000 C   0  0  0  0  0  0  0  0  0  0  0  0
    6.6987   -7.8210    0.0000 C   0  0  0  0  0  0  0  0  0  0  0  0
    5.9842   -7.4085    0.0000 C   0  0  0  0  0  0  0  0  0  0  0  0
    5.9842   -6.5835    0.0000 C   0  0  0  0  0  0  0  0  0  0  0  0
    6.6987   -6.1710    0.0000 C   0  0  0  0  0  0  0  0  0  0  0  0
    7.4131   -6.5835    0.0000 C   0  0  0  0  0  0  0  0  0  0  0  0
    7.4131   -7.4085    0.0000 C   0  0  0  0  0  0  0  0  0  0  0  0
    8.1276   -8.6460    0.0000 O   0  0  0  0  0  0  0  0  0  0  0  0
    8.8421   -9.0585    0.0000 C   0  0  0  0  0  0  0  0  0  0  0  0
    8.1276   -6.1710    0.0000 Br  0  0  0  0  0  0  0  0  0  0  0  0
    6.6987   -5.3460    0.0000 O   0  0  0  0  0  0  0  0  0  0  0  0
    5.2697   -6.1710    0.0000 Br  0  0  0  0  0  0  0  0  0  0  0  0
  6  1  2  0
 11 13  2  0
  1  2  1  0
 12 14  2  0
  1  7  1  0
 14 15  1  0
  3  4  1  0
 15 16  2  0
  4  8  1  0
 16 17  1  0
 17 18  2  0
  8  9  2  0
 18 19  1  0
  4  5  2  0
 19 20  2  0
 20 15  1  0
  9 10  1  0
 12 21  1  0
  2  3  2  0
 21 22  1  0
 10 11  1  0
 19 23  1  0
  5  6  1  0
 18 24  1  0
 11 12  1  0
 17 25  1  0
M  END
>  <Curated_InChIs>  (33) 
InChI=1S/C18H15Br2NO4/c1-25-16(10-12-8-14(19)17(23)15(20)9-12)18(24)21-7-6-11-2-4-13(22)5-3-11/h2-10,22-23H,1H3,(H,21,24)

>  <threshold>  (33) 
5

>  <pchembl>  (33) 
4.96

>  <Classification>  (33) 
0

>  <source>  (33) 
chembl_28

>  <SMILES>  (33) 
CO/C(=C\c1cc(Br)c(O)c(Br)c1)C(=O)N/C=C/c1ccc(O)cc1

>  <InChIKey>  (33) 
VYHWHNQQYCBOCW-OCSBKKPVSA-N

$$$$

     RDKit          2D

 26 28  0  0  0  0  0  0  0  0999 V2000
   28.5260   -7.0410    0.0000 C   0  0  0  0  0  0  0  0  0  0  0  0
   28.5248   -7.8606    0.0000 C   0  0  0  0  0  0  0  0  0  0  0  0
   29.2329   -8.2695    0.0000 C   0  0  0  0  0  0  0  0  0  0  0  0
   29.9425   -7.8601    0.0000 C   0  0  0  0  0  0  0  0  0  0  0  0
   29.9397   -7.0374    0.0000 C   0  0  0  0  0  0  0  0  0  0  0  0
   29.2311   -6.6322    0.0000 C   0  0  0  0  0  0  0  0  0  0  0  0
   30.6459   -6.6262    0.0000 C   0  0  0  0  0  0  0  0  0  0  0  0
   31.3551   -7.0321    0.0000 C   0  0  0  0  0  0  0  0  0  0  0  0
   30.6428   -5.8090    0.0000 O   0  0  0  0  0  0  0  0  0  0  0  0
   32.0613   -6.6208    0.0000 C   0  0  0  0  0  0  0  0  0  0  0  0
   32.7705   -7.0267    0.0000 C   0  0  0  0  0  0  0  0  0  0  0  0
   32.7705   -7.8428    0.0000 C   0  0  0  0  0  0  0  0  0  0  0  0
   33.4789   -8.2487    0.0000 C   0  0  0  0  0  0  0  0  0  0  0  0
   34.1861   -7.8373    0.0000 C   0  0  0  0  0  0  0  0  0  0  0  0
   34.1803   -7.0159    0.0000 C   0  0  0  0  0  0  0  0  0  0  0  0
   33.4714   -6.6138    0.0000 C   0  0  0  0  0  0  0  0  0  0  0  0
   27.8168   -8.2686    0.0000 O   0  0  0  0  0  0  0  0  0  0  0  0
   34.8959   -8.2423    0.0000 O   0  0  0  0  0  0  0  0  0  0  0  0
   34.9000   -9.0595    0.0000 C   0  0  0  0  0  0  0  0  0  0  0  0
   35.6098   -9.4645    0.0000 C   0  0  0  0  0  0  0  0  0  0  0  0
   35.6111  -10.2820    0.0000 C   0  0  0  0  0  0  0  0  0  0  0  0
   36.3201  -10.6869    0.0000 C   0  0  0  0  0  0  0  0  0  0  0  0
   37.0267  -10.2746    0.0000 C   0  0  0  0  0  0  0  0  0  0  0  0
   37.0199   -9.4533    0.0000 C   0  0  0  0  0  0  0  0  0  0  0  0
   36.3104   -9.0520    0.0000 C   0  0  0  0  0  0  0  0  0  0  0  0
   37.7370  -10.6787    0.0000 Cl  0  0  0  0  0  0  0  0  0  0  0  0
  1  2  2  0
  2  3  1  0
  3  4  2  0
  4  5  1  0
  5  6  2  0
  6  1  1  0
  5  7  1  0
  7  8  1  0
  7  9  2  0
  8 10  2  0
 10 11  1  0
 11 12  2  0
 12 13  1  0
 13 14  2  0
 14 15  1  0
 15 16  2  0
 16 11  1  0
  2 17  1  0
 14 18  1  0
 18 19  1  0
 19 20  1  0
 20 21  2  0
 21 22  1  0
 22 23  2  0
 23 24  1  0
 24 25  2  0
 25 20  1  0
 23 26  1  0
M  END
>  <Curated_InChIs>  (34) 
InChI=1S/C22H17ClO3/c23-19-8-1-17(2-9-19)15-26-21-12-3-16(4-13-21)5-14-22(25)18-6-10-20(24)11-7-18/h1-14,24H,15H2

>  <threshold>  (34) 
5

>  <pchembl>  (34) 
4.7

>  <Classification>  (34) 
0

>  <source>  (34) 
chembl_28

>  <SMILES>  (34) 
O=C(/C=C/c1ccc(OCc2ccc(Cl)cc2)cc1)c1ccc(O)cc1

>  <InChIKey>  (34) 
WCRKVDUOLHLLNM-LHHJGKSTSA-N

$$$$

     RDKit          2D

 22 24  0  0  0  0  0  0  0  0999 V2000
    7.4069    0.4334    0.0000 C   0  0  0  0  0  0  0  0  0  0  0  0
    7.4057   -0.3940    0.0000 C   0  0  0  0  0  0  0  0  0  0  0  0
    8.1206   -0.8069    0.0000 C   0  0  0  0  0  0  0  0  0  0  0  0
    8.1188    0.8461    0.0000 C   0  0  0  0  0  0  0  0  0  0  0  0
    8.8341    0.4370    0.0000 C   0  0  0  0  0  0  0  0  0  0  0  0
    8.8349   -0.3898    0.0000 C   0  0  0  0  0  0  0  0  0  0  0  0
    9.5502   -0.8008    0.0000 C   0  0  0  0  0  0  0  0  0  0  0  0
   10.2652   -0.3860    0.0000 C   0  0  0  0  0  0  0  0  0  0  0  0
    9.5446    0.8512    0.0000 C   0  0  0  0  0  0  0  0  0  0  0  0
   10.2606    0.4432    0.0000 C   0  0  0  0  0  0  0  0  0  0  0  0
   10.9697    0.8593    0.0000 C   0  0  0  0  0  0  0  0  0  0  0  0
   10.9641    1.6831    0.0000 C   0  0  0  0  0  0  0  0  0  0  0  0
   10.2434    2.0890    0.0000 C   0  0  0  0  0  0  0  0  0  0  0  0
    9.5372    1.6707    0.0000 O   0  0  0  0  0  0  0  0  0  0  0  0
   11.6870    0.4517    0.0000 O   0  0  0  0  0  0  0  0  0  0  0  0
    6.6909   -0.8059    0.0000 O   0  0  0  0  0  0  0  0  0  0  0  0
    8.1163    1.6711    0.0000 O   0  0  0  0  0  0  0  0  0  0  0  0
    8.8295    2.0858    0.0000 C   0  0  0  0  0  0  0  0  0  0  0  0
   10.2344    2.9140    0.0000 C   0  0  0  0  0  0  0  0  0  0  0  0
   10.9813   -0.7958    0.0000 O   0  0  0  0  0  0  0  0  0  0  0  0
    9.5519   -1.6258    0.0000 O   0  0  0  0  0  0  0  0  0  0  0  0
   10.2673   -2.0368    0.0000 C   0  0  0  0  0  0  0  0  0  0  0  0
 10 11  1  0
  2  3  1  0
 11 12  1  0
  5  6  1  0
 12 13  2  0
  3  6  2  0
 13 14  1  0
 14  9  1  0
  6  7  1  0
 11 15  2  0
  1  2  2  0
  2 16  1  0
  7  8  2  0
  4 17  1  0
  8 10  1  0
 17 18  1  0
  9  5  1  0
 13 19  1  0
  5  4  2  0
  8 20  1  0
  4  1  1  0
  7 21  1  0
  9 10  2  0
 21 22  1  0
M  END
>  <Curated_InChIs>  (35) 
InChI=1S/C16H14O6/c1-7-4-10(18)13-14(19)15(21-3)9-5-8(17)6-11(20-2)12(9)16(13)22-7/h4-6,17,19H,1-3H3

>  <threshold>  (35) 
5

>  <pchembl>  (35) 
4.92

>  <Classification>  (35) 
0

>  <source>  (35) 
chembl_28

>  <SMILES>  (35) 
COc1c(O)c2c(=O)cc(C)oc2c2c(OC)cc(O)cc12

>  <InChIKey>  (35) 
XFDCSEFARMXOMI-UHFFFAOYSA-N

$$$$

     RDKit          2D

 29 33  0  0  0  0  0  0  0  0999 V2000
   25.2366  -19.2452    0.0000 C   0  0  0  0  0  0  0  0  0  0  0  0
   25.2354  -20.0648    0.0000 C   0  0  0  0  0  0  0  0  0  0  0  0
   25.9435  -20.4737    0.0000 C   0  0  0  0  0  0  0  0  0  0  0  0
   25.9417  -18.8364    0.0000 C   0  0  0  0  0  0  0  0  0  0  0  0
   26.6503  -19.2416    0.0000 C   0  0  0  0  0  0  0  0  0  0  0  0
   26.6506  -20.0648    0.0000 C   0  0  0  0  0  0  0  0  0  0  0  0
   27.4335  -20.3190    0.0000 N   0  0  0  0  0  0  0  0  0  0  0  0
   27.4331  -18.9871    0.0000 C   0  0  0  0  0  0  0  0  0  0  0  0
   27.9173  -19.6542    0.0000 C   0  0  0  0  0  0  0  0  0  0  0  0
   28.7326  -19.5689    0.0000 C   0  0  0  0  0  0  0  0  0  0  0  0
   29.0701  -18.8175    0.0000 N   0  0  0  0  0  0  0  0  0  0  0  0
   28.5859  -18.1504    0.0000 C   0  0  0  0  0  0  0  0  0  0  0  0
   27.7642  -18.2347    0.0000 C   0  0  0  0  0  0  0  0  0  0  0  0
   29.8830  -18.7336    0.0000 C   0  0  0  0  0  0  0  0  0  0  0  0
   30.3621  -19.3956    0.0000 O   0  0  0  0  0  0  0  0  0  0  0  0
   30.2167  -17.9877    0.0000 C   0  0  0  0  0  0  0  0  0  0  0  0
   31.0299  -17.9079    0.0000 C   0  0  0  0  0  0  0  0  0  0  0  0
   31.3636  -17.1628    0.0000 C   0  0  0  0  0  0  0  0  0  0  0  0
   30.8844  -16.4998    0.0000 C   0  0  0  0  0  0  0  0  0  0  0  0
   30.0676  -16.5867    0.0000 C   0  0  0  0  0  0  0  0  0  0  0  0
   29.7375  -17.3320    0.0000 C   0  0  0  0  0  0  0  0  0  0  0  0
   29.2126  -20.2276    0.0000 C   0  0  0  0  0  0  0  0  0  0  0  0
   28.8771  -20.9739    0.0000 C   0  0  0  0  0  0  0  0  0  0  0  0
   29.3555  -21.6356    0.0000 C   0  0  0  0  0  0  0  0  0  0  0  0
   30.1693  -21.5520    0.0000 C   0  0  0  0  0  0  0  0  0  0  0  0
   30.5024  -20.8012    0.0000 C   0  0  0  0  0  0  0  0  0  0  0  0
   30.0220  -20.1427    0.0000 C   0  0  0  0  0  0  0  0  0  0  0  0
   27.6859  -21.0962    0.0000 C   0  0  0  0  0  0  0  0  0  0  0  0
   27.1389  -21.7034    0.0000 C   0  0  0  0  0  0  0  0  0  0  0  0
  1  2  2  0
  2  3  1  0
  3  6  2  0
  5  4  2  0
  4  1  1  0
  5  6  1  0
  6  7  1  0
  7  9  1  0
  8  5  1  0
  8  9  2  0
  8 13  1  0
  9 10  1  0
 10 11  1  0
 11 12  1  0
 12 13  1  0
 11 14  1  0
 14 15  2  0
 14 16  1  0
 16 17  2  0
 17 18  1  0
 18 19  2  0
 19 20  1  0
 20 21  2  0
 21 16  1  0
 22 23  2  0
 23 24  1  0
 24 25  2  0
 25 26  1  0
 26 27  2  0
 27 22  1  0
 10 22  1  0
  7 28  1  0
 28 29  1  0
M  END
>  <Curated_InChIs>  (36) 
InChI=1S/C26H24N2O/c1-2-27-23-16-10-9-15-21(23)22-17-18-28(26(29)20-13-7-4-8-14-20)24(25(22)27)19-11-5-3-6-12-19/h3-16,24H,2,17-18H2,1H3

>  <threshold>  (36) 
5

>  <pchembl>  (36) 
4.98

>  <Classification>  (36) 
0

>  <source>  (36) 
chembl_28

>  <SMILES>  (36) 
CCn1c2c(c3ccccc31)CCN(C(=O)c1ccccc1)C2c1ccccc1

>  <InChIKey>  (36) 
XGXFMQLSPAGIME-UHFFFAOYSA-N

$$$$

     RDKit          2D

 38 42  0  0  0  0  0  0  0  0999 V2000
   42.2215   -3.2935    0.0000 C   0  0  0  0  0  0  0  0  0  0  0  0
   42.2215   -4.1148    0.0000 C   0  0  0  0  0  0  0  0  0  0  0  0
   42.9310   -4.5234    0.0000 O   0  0  0  0  0  0  0  0  0  0  0  0
   42.9310   -2.8808    0.0000 C   0  0  0  0  0  0  0  0  0  0  0  0
   43.6362   -3.2935    0.0000 C   0  0  0  0  0  0  0  0  0  0  0  0
   43.6346   -4.1130    0.0000 C   0  0  0  0  0  0  0  0  0  0  0  0
   44.3430   -4.5245    0.0000 C   0  0  0  0  0  0  0  0  0  0  0  0
   45.0534   -4.1134    0.0000 C   0  0  0  0  0  0  0  0  0  0  0  0
   45.0511   -3.2907    0.0000 C   0  0  0  0  0  0  0  0  0  0  0  0
   44.3421   -2.8871    0.0000 C   0  0  0  0  0  0  0  0  0  0  0  0
   42.9310   -2.0595    0.0000 O   0  0  0  0  0  0  0  0  0  0  0  0
   41.5103   -4.5286    0.0000 O   0  0  0  0  0  0  0  0  0  0  0  0
   40.7979   -4.1169    0.0000 C   0  0  0  0  0  0  0  0  0  0  0  0
   40.0866   -4.5307    0.0000 C   0  0  0  0  0  0  0  0  0  0  0  0
   39.3742   -4.1190    0.0000 N   0  0  0  0  0  0  0  0  0  0  0  0
   40.0878   -5.3520    0.0000 O   0  0  0  0  0  0  0  0  0  0  0  0
   38.6630   -4.5327    0.0000 C   0  0  0  0  0  0  0  0  0  0  0  0
   37.2455   -5.3546    0.0000 C   0  0  0  0  0  0  0  0  0  0  0  0
   37.9629   -5.7620    0.0000 C   0  0  0  0  0  0  0  0  0  0  0  0
   38.6666   -5.3508    0.0000 C   0  0  0  0  0  0  0  0  0  0  0  0
   41.5109   -2.8891    0.0000 C   0  0  0  0  0  0  0  0  0  0  0  0
   41.5099   -2.0667    0.0000 C   0  0  0  0  0  0  0  0  0  0  0  0
   40.7977   -1.6561    0.0000 C   0  0  0  0  0  0  0  0  0  0  0  0
   40.0861   -2.0710    0.0000 C   0  0  0  0  0  0  0  0  0  0  0  0
   40.0911   -2.8965    0.0000 C   0  0  0  0  0  0  0  0  0  0  0  0
   40.8038   -3.2992    0.0000 C   0  0  0  0  0  0  0  0  0  0  0  0
   37.2448   -4.5324    0.0000 C   0  0  0  0  0  0  0  0  0  0  0  0
   37.9556   -4.1240    0.0000 C   0  0  0  0  0  0  0  0  0  0  0  0
   37.9579   -3.3075    0.0000 C   0  0  0  0  0  0  0  0  0  0  0  0
   37.2500   -2.8985    0.0000 C   0  0  0  0  0  0  0  0  0  0  0  0
   36.5384   -3.3078    0.0000 C   0  0  0  0  0  0  0  0  0  0  0  0
   36.5396   -4.1229    0.0000 C   0  0  0  0  0  0  0  0  0  0  0  0
   40.7957   -0.8348    0.0000 O   0  0  0  0  0  0  0  0  0  0  0  0
   39.3725   -1.6613    0.0000 O   0  0  0  0  0  0  0  0  0  0  0  0
   39.3690   -0.8400    0.0000 C   0  0  0  0  0  0  0  0  0  0  0  0
   41.5065   -0.4245    0.0000 C   0  0  0  0  0  0  0  0  0  0  0  0
   39.3819   -3.3097    0.0000 O   0  0  0  0  0  0  0  0  0  0  0  0
   38.6674   -2.9056    0.0000 C   0  0  0  0  0  0  0  0  0  0  0  0
  1  2  2  0
  1  4  1  0
  2  3  1  0
  3  6  1  0
  5  4  1  0
  5  6  2  0
  6  7  1  0
  7  8  2  0
  8  9  1  0
  9 10  2  0
 10  5  1  0
  4 11  2  0
  2 12  1  0
 12 13  1  0
 13 14  1  0
 14 15  1  0
 14 16  2  0
 15 17  1  0
 17 28  2  0
 27 18  2  0
 18 19  1  0
 19 20  2  0
 20 17  1  0
 21 22  2  0
 22 23  1  0
 23 24  2  0
 24 25  1  0
 25 26  2  0
 26 21  1  0
  1 21  1  0
 27 28  1  0
 28 29  1  0
 29 30  2  0
 30 31  1  0
 31 32  2  0
 32 27  1  0
 23 33  1  0
 24 34  1  0
 34 35  1  0
 33 36  1  0
 25 37  1  0
 37 38  1  0
M  END
>  <Curated_InChIs>  (37) 
InChI=1S/C30H25NO7/c1-34-24-15-19(16-25(35-2)29(24)36-3)27-28(33)21-12-6-7-14-23(21)38-30(27)37-17-26(32)31-22-13-8-10-18-9-4-5-11-20(18)22/h4-16H,17H2,1-3H3,(H,31,32)

>  <threshold>  (37) 
5

>  <pchembl>  (37) 
4.98

>  <Classification>  (37) 
0

>  <source>  (37) 
chembl_28

>  <SMILES>  (37) 
COc1cc(-c2c(OCC(=O)Nc3cccc4ccccc34)oc3ccccc3c2=O)cc(OC)c1OC

>  <InChIKey>  (37) 
XSPPQGDFBAIATC-UHFFFAOYSA-N

$$$$

     RDKit          2D

 23 26  0  0  0  0  0  0  0  0999 V2000
    1.8435  -19.3897    0.0000 C   0  0  0  0  0  0  0  0  0  0  0  0
    1.8423  -20.2092    0.0000 C   0  0  0  0  0  0  0  0  0  0  0  0
    2.5504  -20.6182    0.0000 C   0  0  0  0  0  0  0  0  0  0  0  0
    2.5486  -18.9808    0.0000 C   0  0  0  0  0  0  0  0  0  0  0  0
    3.2572  -19.3861    0.0000 C   0  0  0  0  0  0  0  0  0  0  0  0
    3.2579  -20.2051    0.0000 C   0  0  0  0  0  0  0  0  0  0  0  0
    3.9665  -20.6122    0.0000 N   0  0  0  0  0  0  0  0  0  0  0  0
    4.6747  -20.2013    0.0000 C   0  0  0  0  0  0  0  0  0  0  0  0
    4.6700  -19.3792    0.0000 N   0  0  0  0  0  0  0  0  0  0  0  0
    3.9609  -18.9758    0.0000 C   0  0  0  0  0  0  0  0  0  0  0  0
    5.3882  -20.6043    0.0000 C   0  0  0  0  0  0  0  0  0  0  0  0
    3.9566  -18.1587    0.0000 O   0  0  0  0  0  0  0  0  0  0  0  0
    4.6621  -17.7463    0.0000 C   0  0  0  0  0  0  0  0  0  0  0  0
    5.3674  -18.1545    0.0000 C   0  0  0  0  0  0  0  0  0  0  0  0
    6.0724  -17.7429    0.0000 C   0  0  0  0  0  0  0  0  0  0  0  0
    6.0685  -16.9248    0.0000 C   0  0  0  0  0  0  0  0  0  0  0  0
    5.3537  -16.5202    0.0000 C   0  0  0  0  0  0  0  0  0  0  0  0
    4.6516  -16.9342    0.0000 C   0  0  0  0  0  0  0  0  0  0  0  0
    5.3910  -21.4236    0.0000 C   0  0  0  0  0  0  0  0  0  0  0  0
    6.1036  -21.8265    0.0000 C   0  0  0  0  0  0  0  0  0  0  0  0
    6.8103  -21.4101    0.0000 C   0  0  0  0  0  0  0  0  0  0  0  0
    6.7999  -20.5865    0.0000 C   0  0  0  0  0  0  0  0  0  0  0  0
    6.0868  -20.1873    0.0000 C   0  0  0  0  0  0  0  0  0  0  0  0
  1  2  2  0
  2  3  1  0
  3  6  2  0
  5  4  2  0
  4  1  1  0
  5  6  1  0
  6  7  1  0
  7  8  2  0
  8  9  1  0
  9 10  2  0
 10  5  1  0
  8 11  1  0
 10 12  1  0
 12 13  1  0
 13 14  2  0
 14 15  1  0
 15 16  2  0
 16 17  1  0
 17 18  2  0
 18 13  1  0
 11 19  2  0
 19 20  1  0
 20 21  2  0
 21 22  1  0
 22 23  2  0
 23 11  1  0
M  END
>  <Curated_InChIs>  (38) 
InChI=1S/C20H14N2O/c1-3-9-15(10-4-1)19-21-18-14-8-7-13-17(18)20(22-19)23-16-11-5-2-6-12-16/h1-14H

>  <threshold>  (38) 
5

>  <pchembl>  (38) 
4.84

>  <Classification>  (38) 
0

>  <source>  (38) 
chembl_28

>  <SMILES>  (38) 
c1ccc(Oc2nc(-c3ccccc3)nc3ccccc23)cc1

>  <InChIKey>  (38) 
YFUUDEMBYNORKZ-UHFFFAOYSA-N

$$$$

     RDKit          2D

 40 45  0  0  0  0  0  0  0  0999 V2000
   12.4251   -6.7723    0.0000 C   0  0  0  0  0  0  0  0  0  0  0  0
   10.2989   -6.3547    0.0000 C   0  0  0  0  0  0  0  0  0  0  0  0
   10.2948   -7.9919    0.0000 N   0  0  0  0  0  0  0  0  0  0  0  0
   12.4203   -7.5879    0.0000 C   0  0  0  0  0  0  0  0  0  0  0  0
    9.5903   -6.7610    0.0000 C   0  0  0  0  0  0  0  0  0  0  0  0
    9.5863   -7.5836    0.0000 C   0  0  0  0  0  0  0  0  0  0  0  0
   11.7193   -6.3561    0.0000 C   0  0  0  0  0  0  0  0  0  0  0  0
   11.0028   -7.5860    0.0000 C   0  0  0  0  0  0  0  0  0  0  0  0
   11.7097   -7.9981    0.0000 C   0  0  0  0  0  0  0  0  0  0  0  0
   11.0028   -6.7666    0.0000 C   0  0  0  0  0  0  0  0  0  0  0  0
   13.1359   -6.3691    0.0000 C   0  0  0  0  0  0  0  0  0  0  0  0
   12.4467  -10.0624    0.0000 C   0  0  0  0  0  0  0  0  0  0  0  0
    8.1852   -9.2762    0.0000 C   0  0  0  0  0  0  0  0  0  0  0  0
   10.3208  -10.4915    0.0000 C   0  0  0  0  0  0  0  0  0  0  0  0
   13.8493   -6.7720    0.0000 N   0  0  0  0  0  0  0  0  0  0  0  0
   13.8555   -7.5930    0.0000 C   0  0  0  0  0  0  0  0  0  0  0  0
   13.1503   -8.0100    0.0000 C   0  0  0  0  0  0  0  0  0  0  0  0
    7.4846  -10.5132    0.0000 C   0  0  0  0  0  0  0  0  0  0  0  0
   11.7409  -10.4786    0.0000 C   0  0  0  0  0  0  0  0  0  0  0  0
   11.0277  -10.0728    0.0000 C   0  0  0  0  0  0  0  0  0  0  0  0
   11.0208   -9.2464    0.0000 C   0  0  0  0  0  0  0  0  0  0  0  0
   15.2808   -7.5861    0.0000 C   0  0  0  0  0  0  0  0  0  0  0  0
   13.1296   -5.5482    0.0000 O   0  0  0  0  0  0  0  0  0  0  0  0
   14.5726   -8.0024    0.0000 C   0  0  0  0  0  0  0  0  0  0  0  0
   15.2763   -6.7653    0.0000 O   0  0  0  0  0  0  0  0  0  0  0  0
   14.5754   -8.8243    0.0000 C   0  0  0  0  0  0  0  0  0  0  0  0
   12.4438   -9.2391    0.0000 C   0  0  0  0  0  0  0  0  0  0  0  0
   15.9933   -7.9949    0.0000 O   0  0  0  0  0  0  0  0  0  0  0  0
    7.4739   -8.8722    0.0000 C   0  0  0  0  0  0  0  0  0  0  0  0
    8.8927   -8.8647    0.0000 C   0  0  0  0  0  0  0  0  0  0  0  0
   13.8672   -9.2348    0.0000 C   0  0  0  0  0  0  0  0  0  0  0  0
    6.7613   -9.2845    0.0000 C   0  0  0  0  0  0  0  0  0  0  0  0
    8.1885  -10.0975    0.0000 C   0  0  0  0  0  0  0  0  0  0  0  0
   16.7015   -7.5786    0.0000 C   0  0  0  0  0  0  0  0  0  0  0  0
   13.1549   -8.8276    0.0000 C   0  0  0  0  0  0  0  0  0  0  0  0
   11.7312   -8.8338    0.0000 C   0  0  0  0  0  0  0  0  0  0  0  0
    8.9028  -10.5085    0.0000 C   0  0  0  0  0  0  0  0  0  0  0  0
    6.7686  -10.1089    0.0000 C   0  0  0  0  0  0  0  0  0  0  0  0
    9.6026   -9.2668    0.0000 C   0  0  0  0  0  0  0  0  0  0  0  0
    9.6070  -10.0851    0.0000 N   0  0  0  0  0  0  0  0  0  0  0  0
  7  1  2  0
  6  5  1  0
  5  2  2  0
  3  6  2  0
 10  8  2  0
  2 10  1  0
  4  9  2  0
  1  4  1  0
  9  8  1  0
  8  3  1  0
 10  7  1  0
  1 11  1  0
 35 31  1  0
 17 35  2  0
 30 13  1  0
 26 24  1  0
 22 28  1  0
 14 40  1  0
 16 17  1  0
 22 25  2  0
 24 22  1  0
 36 21  1  0
 16 15  1  0
 20 19  1  0
 21 20  2  0
 19 12  2  0
 40 39  1  0
 24 16  2  0
 15 11  1  0
 38 18  2  0
 32 38  1  0
 11 23  2  0
 27 36  2  0
 28 34  1  0
 13 29  1  0
 33 13  2  0
 18 33  1  0
 40 37  1  0
 27 35  1  0
 33 37  1  0
 12 27  1  0
 29 32  2  0
 31 26  2  0
 39 30  1  0
 20 14  1  0
M  END
>  <Curated_InChIs>  (39) 
InChI=1S/C34H29N3O3/c1-40-34(39)30-14-12-26(20-32(30)36-33(38)28-13-15-31-27(19-28)7-4-17-35-31)25-10-8-23(9-11-25)21-37-18-16-24-5-2-3-6-29(24)22-37/h2-15,17,19-20H,16,18,21-22H2,1H3,(H,36,38)

>  <threshold>  (39) 
5

>  <pchembl>  (39) 
6.19

>  <Classification>  (39) 
1

>  <source>  (39) 
chembl_28

>  <SMILES>  (39) 
COC(=O)c1ccc(-c2ccc(CN3CCc4ccccc4C3)cc2)cc1NC(=O)c1ccc2ncccc2c1

>  <InChIKey>  (39) 
AKAMCNVSSDZPIJ-UHFFFAOYSA-N

$$$$

     RDKit          2D

 31 35  0  0  0  0  0  0  0  0999 V2000
   12.5288  -11.9689    0.0000 C   0  0  0  0  0  0  0  0  0  0  0  0
   12.5277  -12.7885    0.0000 C   0  0  0  0  0  0  0  0  0  0  0  0
   13.2357  -13.1974    0.0000 C   0  0  0  0  0  0  0  0  0  0  0  0
   13.2340  -11.5601    0.0000 C   0  0  0  0  0  0  0  0  0  0  0  0
   13.9426  -11.9653    0.0000 C   0  0  0  0  0  0  0  0  0  0  0  0
   13.9428  -12.7885    0.0000 C   0  0  0  0  0  0  0  0  0  0  0  0
   14.7258  -13.0427    0.0000 N   0  0  0  0  0  0  0  0  0  0  0  0
   14.7254  -11.7108    0.0000 C   0  0  0  0  0  0  0  0  0  0  0  0
   15.2096  -12.3779    0.0000 C   0  0  0  0  0  0  0  0  0  0  0  0
   16.0249  -12.2926    0.0000 C   0  0  0  0  0  0  0  0  0  0  0  0
   16.3623  -11.5412    0.0000 N   0  0  0  0  0  0  0  0  0  0  0  0
   15.8782  -10.8741    0.0000 C   0  0  0  0  0  0  0  0  0  0  0  0
   15.0565  -10.9584    0.0000 C   0  0  0  0  0  0  0  0  0  0  0  0
   17.1752  -11.4573    0.0000 C   0  0  0  0  0  0  0  0  0  0  0  0
   17.6543  -12.1193    0.0000 O   0  0  0  0  0  0  0  0  0  0  0  0
   17.5090  -10.7114    0.0000 C   0  0  0  0  0  0  0  0  0  0  0  0
   18.3221  -10.6316    0.0000 C   0  0  0  0  0  0  0  0  0  0  0  0
   18.6559   -9.8865    0.0000 C   0  0  0  0  0  0  0  0  0  0  0  0
   18.1767   -9.2235    0.0000 C   0  0  0  0  0  0  0  0  0  0  0  0
   17.3598   -9.3104    0.0000 C   0  0  0  0  0  0  0  0  0  0  0  0
   17.0298  -10.0557    0.0000 C   0  0  0  0  0  0  0  0  0  0  0  0
   16.5048  -12.9513    0.0000 C   0  0  0  0  0  0  0  0  0  0  0  0
   16.1694  -13.6976    0.0000 C   0  0  0  0  0  0  0  0  0  0  0  0
   16.6477  -14.3593    0.0000 C   0  0  0  0  0  0  0  0  0  0  0  0
   17.4615  -14.2757    0.0000 C   0  0  0  0  0  0  0  0  0  0  0  0
   17.7946  -13.5249    0.0000 C   0  0  0  0  0  0  0  0  0  0  0  0
   17.3142  -12.8664    0.0000 C   0  0  0  0  0  0  0  0  0  0  0  0
   18.5094   -8.4771    0.0000 O   0  0  0  0  0  0  0  0  0  0  0  0
   19.3222   -8.3921    0.0000 C   0  0  0  0  0  0  0  0  0  0  0  0
   16.3136  -15.1050    0.0000 Cl  0  0  0  0  0  0  0  0  0  0  0  0
   17.9415  -14.9371    0.0000 Cl  0  0  0  0  0  0  0  0  0  0  0  0
  1  2  2  0
  2  3  1  0
  3  6  2  0
  5  4  2  0
  4  1  1  0
  5  6  1  0
  6  7  1  0
  7  9  1  0
  8  5  1  0
  8  9  2  0
  8 13  1  0
  9 10  1  0
 10 11  1  0
 11 12  1  0
 12 13  1  0
 11 14  1  0
 14 15  2  0
 14 16  1  0
 16 17  2  0
 17 18  1  0
 18 19  2  0
 19 20  1  0
 20 21  2  0
 21 16  1  0
 22 23  2  0
 23 24  1  0
 24 25  2  0
 25 26  1  0
 26 27  2  0
 27 22  1  0
 10 22  1  0
 19 28  1  0
 28 29  1  0
 24 30  1  0
 25 31  1  0
M  END
>  <Curated_InChIs>  (40) 
InChI=1S/C25H20Cl2N2O2/c1-31-17-9-6-15(7-10-17)25(30)29-13-12-19-18-4-2-3-5-22(18)28-23(19)24(29)16-8-11-20(26)21(27)14-16/h2-11,14,24,28H,12-13H2,1H3

>  <threshold>  (40) 
5

>  <pchembl>  (40) 
7.58, 6.63, 6.62, 6.54

>  <Classification>  (40) 
1

>  <source>  (40) 
chembl_28

>  <SMILES>  (40) 
COc1ccc(C(=O)N2CCc3c([nH]c4ccccc34)C2c2ccc(Cl)c(Cl)c2)cc1

>  <InChIKey>  (40) 
AKQFVWUCZTWDKB-UHFFFAOYSA-N

$$$$

     RDKit          2D

 27 30  0  0  0  0  0  0  0  0999 V2000
   26.1363  -20.2729    0.0000 C   0  0  0  0  0  0  0  0  0  0  0  0
   26.1352  -21.0924    0.0000 C   0  0  0  0  0  0  0  0  0  0  0  0
   26.8432  -21.5014    0.0000 C   0  0  0  0  0  0  0  0  0  0  0  0
   26.8414  -19.8640    0.0000 C   0  0  0  0  0  0  0  0  0  0  0  0
   27.5501  -20.2693    0.0000 C   0  0  0  0  0  0  0  0  0  0  0  0
   27.5508  -21.0883    0.0000 C   0  0  0  0  0  0  0  0  0  0  0  0
   28.2593  -21.4954    0.0000 N   0  0  0  0  0  0  0  0  0  0  0  0
   28.9676  -21.0846    0.0000 C   0  0  0  0  0  0  0  0  0  0  0  0
   28.9629  -20.2624    0.0000 N   0  0  0  0  0  0  0  0  0  0  0  0
   28.2538  -19.8591    0.0000 C   0  0  0  0  0  0  0  0  0  0  0  0
   28.2494  -19.0419    0.0000 N   0  0  0  0  0  0  0  0  0  0  0  0
   28.9550  -18.6296    0.0000 C   0  0  0  0  0  0  0  0  0  0  0  0
   29.6603  -19.0378    0.0000 C   0  0  0  0  0  0  0  0  0  0  0  0
   30.3653  -18.6261    0.0000 C   0  0  0  0  0  0  0  0  0  0  0  0
   30.3614  -17.8081    0.0000 C   0  0  0  0  0  0  0  0  0  0  0  0
   29.6466  -17.4034    0.0000 C   0  0  0  0  0  0  0  0  0  0  0  0
   28.9444  -17.8174    0.0000 C   0  0  0  0  0  0  0  0  0  0  0  0
   29.6733  -21.4863    0.0000 C   0  0  0  0  0  0  0  0  0  0  0  0
   29.6752  -22.3046    0.0000 C   0  0  0  0  0  0  0  0  0  0  0  0
   30.3836  -22.7104    0.0000 C   0  0  0  0  0  0  0  0  0  0  0  0
   31.0907  -22.2990    0.0000 C   0  0  0  0  0  0  0  0  0  0  0  0
   31.0849  -21.4776    0.0000 C   0  0  0  0  0  0  0  0  0  0  0  0
   30.3759  -21.0755    0.0000 C   0  0  0  0  0  0  0  0  0  0  0  0
   31.0664  -17.3948    0.0000 C   0  0  0  0  0  0  0  0  0  0  0  0
   31.7768  -17.7987    0.0000 C   0  0  0  0  0  0  0  0  0  0  0  0
   31.0610  -16.5776    0.0000 C   0  0  0  0  0  0  0  0  0  0  0  0
   31.7714  -16.9794    0.0000 C   0  0  0  0  0  0  0  0  0  0  0  0
  1  2  2  0
  2  3  1  0
  3  6  2  0
  5  4  2  0
  4  1  1  0
  5  6  1  0
  6  7  1  0
  7  8  2  0
  8  9  1  0
  9 10  2  0
 10  5  1  0
 10 11  1  0
 11 12  1  0
 12 13  2  0
 13 14  1  0
 14 15  2  0
 15 16  1  0
 16 17  2  0
 17 12  1  0
 18 19  2  0
 19 20  1  0
 20 21  2  0
 21 22  1  0
 22 23  2  0
 23 18  1  0
  8 18  1  0
 15 24  1  0
 24 25  1  0
 24 26  1  0
 24 27  1  0
M  END
>  <Curated_InChIs>  (41) 
InChI=1S/C24H23N3/c1-24(2,3)18-13-15-19(16-14-18)25-23-20-11-7-8-12-21(20)26-22(27-23)17-9-5-4-6-10-17/h4-16H,1-3H3,(H,25,26,27)

>  <threshold>  (41) 
5

>  <pchembl>  (41) 
5.97

>  <Classification>  (41) 
1

>  <source>  (41) 
chembl_28

>  <SMILES>  (41) 
CC(C)(C)c1ccc(Nc2nc(-c3ccccc3)nc3ccccc23)cc1

>  <InChIKey>  (41) 
ALUZZYWIKXZIES-UHFFFAOYSA-N

$$$$

     RDKit          2D

 31 35  0  0  0  0  0  0  0  0999 V2000
    2.6276  -19.4392    0.0000 C   0  0  0  0  0  0  0  0  0  0  0  0
    2.6265  -20.2587    0.0000 C   0  0  0  0  0  0  0  0  0  0  0  0
    3.3345  -20.6677    0.0000 C   0  0  0  0  0  0  0  0  0  0  0  0
    3.3327  -19.0303    0.0000 C   0  0  0  0  0  0  0  0  0  0  0  0
    4.0414  -19.4356    0.0000 C   0  0  0  0  0  0  0  0  0  0  0  0
    4.0416  -20.2588    0.0000 C   0  0  0  0  0  0  0  0  0  0  0  0
    4.8246  -20.5130    0.0000 N   0  0  0  0  0  0  0  0  0  0  0  0
    4.8242  -19.1811    0.0000 C   0  0  0  0  0  0  0  0  0  0  0  0
    5.3084  -19.8482    0.0000 C   0  0  0  0  0  0  0  0  0  0  0  0
    6.1237  -19.7629    0.0000 C   0  0  0  0  0  0  0  0  0  0  0  0
    6.4611  -19.0115    0.0000 N   0  0  0  0  0  0  0  0  0  0  0  0
    5.9769  -18.3444    0.0000 C   0  0  0  0  0  0  0  0  0  0  0  0
    5.1553  -18.4287    0.0000 C   0  0  0  0  0  0  0  0  0  0  0  0
    7.2740  -18.9276    0.0000 C   0  0  0  0  0  0  0  0  0  0  0  0
    7.7531  -19.5896    0.0000 O   0  0  0  0  0  0  0  0  0  0  0  0
    7.6078  -18.1817    0.0000 C   0  0  0  0  0  0  0  0  0  0  0  0
    8.4209  -18.1018    0.0000 C   0  0  0  0  0  0  0  0  0  0  0  0
    8.7547  -17.3568    0.0000 C   0  0  0  0  0  0  0  0  0  0  0  0
    8.2754  -16.6938    0.0000 C   0  0  0  0  0  0  0  0  0  0  0  0
    7.4586  -16.7807    0.0000 C   0  0  0  0  0  0  0  0  0  0  0  0
    7.1286  -17.5260    0.0000 C   0  0  0  0  0  0  0  0  0  0  0  0
    6.6036  -20.4215    0.0000 C   0  0  0  0  0  0  0  0  0  0  0  0
    6.2681  -21.1679    0.0000 C   0  0  0  0  0  0  0  0  0  0  0  0
    6.7465  -21.8295    0.0000 C   0  0  0  0  0  0  0  0  0  0  0  0
    7.5603  -21.7460    0.0000 C   0  0  0  0  0  0  0  0  0  0  0  0
    7.8934  -20.9951    0.0000 C   0  0  0  0  0  0  0  0  0  0  0  0
    7.4130  -20.3367    0.0000 C   0  0  0  0  0  0  0  0  0  0  0  0
    8.6082  -15.9474    0.0000 O   0  0  0  0  0  0  0  0  0  0  0  0
    9.4210  -15.8624    0.0000 C   0  0  0  0  0  0  0  0  0  0  0  0
    6.4124  -22.5753    0.0000 F   0  0  0  0  0  0  0  0  0  0  0  0
    8.0403  -22.4074    0.0000 F   0  0  0  0  0  0  0  0  0  0  0  0
  1  2  2  0
  2  3  1  0
  3  6  2  0
  5  4  2  0
  4  1  1  0
  5  6  1  0
  6  7  1  0
  7  9  1  0
  8  5  1  0
  8  9  2  0
  8 13  1  0
  9 10  1  0
 10 11  1  0
 11 12  1  0
 12 13  1  0
 11 14  1  0
 14 15  2  0
 14 16  1  0
 16 17  2  0
 17 18  1  0
 18 19  2  0
 19 20  1  0
 20 21  2  0
 21 16  1  0
 22 23  2  0
 23 24  1  0
 24 25  2  0
 25 26  1  0
 26 27  2  0
 27 22  1  0
 10 22  1  0
 19 28  1  0
 28 29  1  0
 24 30  1  0
 25 31  1  0
M  END
>  <Curated_InChIs>  (42) 
InChI=1S/C25H20F2N2O2/c1-31-17-9-6-15(7-10-17)25(30)29-13-12-19-18-4-2-3-5-22(18)28-23(19)24(29)16-8-11-20(26)21(27)14-16/h2-11,14,24,28H,12-13H2,1H3

>  <threshold>  (42) 
5

>  <pchembl>  (42) 
6.09

>  <Classification>  (42) 
1

>  <source>  (42) 
chembl_28

>  <SMILES>  (42) 
COc1ccc(C(=O)N2CCc3c([nH]c4ccccc34)C2c2ccc(F)c(F)c2)cc1

>  <InChIKey>  (42) 
APZUHYITGIWJGL-UHFFFAOYSA-N

$$$$

     RDKit          2D

 20 21  0  0  0  0  0  0  0  0999 V2000
   37.8576   -2.6166    0.0000 C   0  0  0  0  0  0  0  0  0  0  0  0
   37.8565   -3.4362    0.0000 C   0  0  0  0  0  0  0  0  0  0  0  0
   38.5646   -3.8451    0.0000 C   0  0  0  0  0  0  0  0  0  0  0  0
   39.2742   -3.4357    0.0000 C   0  0  0  0  0  0  0  0  0  0  0  0
   39.2714   -2.6130    0.0000 C   0  0  0  0  0  0  0  0  0  0  0  0
   38.5628   -2.2078    0.0000 C   0  0  0  0  0  0  0  0  0  0  0  0
   39.9775   -2.2018    0.0000 C   0  0  0  0  0  0  0  0  0  0  0  0
   40.6868   -2.6077    0.0000 C   0  0  0  0  0  0  0  0  0  0  0  0
   39.9745   -1.3846    0.0000 O   0  0  0  0  0  0  0  0  0  0  0  0
   41.3930   -2.1964    0.0000 C   0  0  0  0  0  0  0  0  0  0  0  0
   42.1022   -2.6024    0.0000 C   0  0  0  0  0  0  0  0  0  0  0  0
   42.1022   -3.4184    0.0000 C   0  0  0  0  0  0  0  0  0  0  0  0
   42.8106   -3.8243    0.0000 C   0  0  0  0  0  0  0  0  0  0  0  0
   43.5177   -3.4130    0.0000 C   0  0  0  0  0  0  0  0  0  0  0  0
   43.5120   -2.5916    0.0000 C   0  0  0  0  0  0  0  0  0  0  0  0
   42.8030   -2.1894    0.0000 C   0  0  0  0  0  0  0  0  0  0  0  0
   37.1485   -3.8442    0.0000 O   0  0  0  0  0  0  0  0  0  0  0  0
   44.2275   -3.8179    0.0000 O   0  0  0  0  0  0  0  0  0  0  0  0
   44.9331   -3.4057    0.0000 C   0  0  0  0  0  0  0  0  0  0  0  0
   45.6429   -3.8107    0.0000 C   0  0  0  0  0  0  0  0  0  0  0  0
  1  2  2  0
  2  3  1  0
  3  4  2  0
  4  5  1  0
  5  6  2  0
  6  1  1  0
  5  7  1  0
  7  8  1  0
  7  9  2  0
  8 10  2  0
 10 11  1  0
 11 12  2  0
 12 13  1  0
 13 14  2  0
 14 15  1  0
 15 16  2  0
 16 11  1  0
  2 17  1  0
 14 18  1  0
 18 19  1  0
 19 20  1  0
M  END
>  <Curated_InChIs>  (43) 
InChI=1S/C17H16O3/c1-2-20-16-10-3-13(4-11-16)5-12-17(19)14-6-8-15(18)9-7-14/h3-12,18H,2H2,1H3

>  <threshold>  (43) 
5

>  <pchembl>  (43) 
5.19

>  <Classification>  (43) 
1

>  <source>  (43) 
chembl_28

>  <SMILES>  (43) 
CCOc1ccc(/C=C/C(=O)c2ccc(O)cc2)cc1

>  <InChIKey>  (43) 
BDZFTVOWGRMIDN-LFYBBSHMSA-N

$$$$

     RDKit          2D

 28 31  0  0  0  0  0  0  0  0999 V2000
    9.6522   -3.9084    0.0000 C   0  0  0  0  0  0  0  0  0  0  0  0
    9.6510   -4.7280    0.0000 C   0  0  0  0  0  0  0  0  0  0  0  0
   10.3591   -5.1369    0.0000 C   0  0  0  0  0  0  0  0  0  0  0  0
   10.3573   -3.4996    0.0000 C   0  0  0  0  0  0  0  0  0  0  0  0
   11.0659   -3.9048    0.0000 C   0  0  0  0  0  0  0  0  0  0  0  0
   11.0667   -4.7239    0.0000 C   0  0  0  0  0  0  0  0  0  0  0  0
   11.7752   -5.1309    0.0000 N   0  0  0  0  0  0  0  0  0  0  0  0
   12.4835   -4.7201    0.0000 C   0  0  0  0  0  0  0  0  0  0  0  0
   12.4787   -3.8980    0.0000 N   0  0  0  0  0  0  0  0  0  0  0  0
   11.7696   -3.4946    0.0000 C   0  0  0  0  0  0  0  0  0  0  0  0
   13.1969   -5.1231    0.0000 C   0  0  0  0  0  0  0  0  0  0  0  0
   11.7653   -2.6774    0.0000 N   0  0  0  0  0  0  0  0  0  0  0  0
   13.1997   -5.9424    0.0000 C   0  0  0  0  0  0  0  0  0  0  0  0
   13.9123   -6.3453    0.0000 C   0  0  0  0  0  0  0  0  0  0  0  0
   14.6190   -5.9289    0.0000 C   0  0  0  0  0  0  0  0  0  0  0  0
   14.6086   -5.1053    0.0000 C   0  0  0  0  0  0  0  0  0  0  0  0
   13.8955   -4.7061    0.0000 C   0  0  0  0  0  0  0  0  0  0  0  0
   12.4708   -2.2651    0.0000 C   0  0  0  0  0  0  0  0  0  0  0  0
   12.4665   -1.4479    0.0000 O   0  0  0  0  0  0  0  0  0  0  0  0
   13.1807   -2.6699    0.0000 C   0  0  0  0  0  0  0  0  0  0  0  0
   13.1798   -3.4845    0.0000 C   0  0  0  0  0  0  0  0  0  0  0  0
   13.8888   -3.8892    0.0000 C   0  0  0  0  0  0  0  0  0  0  0  0
   14.5954   -3.4768    0.0000 C   0  0  0  0  0  0  0  0  0  0  0  0
   14.5884   -2.6554    0.0000 C   0  0  0  0  0  0  0  0  0  0  0  0
   13.8788   -2.2544    0.0000 C   0  0  0  0  0  0  0  0  0  0  0  0
   13.8659   -1.4392    0.0000 N   0  0  0  0  0  0  0  0  0  0  0  0
   13.1536   -1.0385    0.0000 O   0  0  0  0  0  0  0  0  0  0  0  0
   14.5689   -1.0226    0.0000 O   0  0  0  0  0  0  0  0  0  0  0  0
  1  2  2  0
  2  3  1  0
  3  6  2  0
  5  4  2  0
  4  1  1  0
  5  6  1  0
  6  7  1  0
  7  8  2  0
  8  9  1  0
  9 10  2  0
 10  5  1  0
  8 11  1  0
 10 12  1  0
 11 13  2  0
 13 14  1  0
 14 15  2  0
 15 16  1  0
 16 17  2  0
 17 11  1  0
 12 18  1  0
 18 19  2  0
 18 20  1  0
 20 21  2  0
 21 22  1  0
 22 23  2  0
 23 24  1  0
 24 25  2  0
 25 20  1  0
 26 27  2  0
 26 28  1  0
 25 26  1  0
M  CHG  2  26   1  28  -1
M  END
>  <Curated_InChIs>  (44) 
InChI=1S/C21H14N4O3/c26-21(16-11-5-7-13-18(16)25(27)28)24-20-15-10-4-6-12-17(15)22-19(23-20)14-8-2-1-3-9-14/h1-13H,(H,22,23,24,26)

>  <threshold>  (44) 
5

>  <pchembl>  (44) 
6.0

>  <Classification>  (44) 
1

>  <source>  (44) 
chembl_28

>  <SMILES>  (44) 
O=C(Nc1nc(-c2ccccc2)nc2ccccc12)c1ccccc1[N+](=O)[O-]

>  <InChIKey>  (44) 
BIAKPCRESIYWKY-UHFFFAOYSA-N

$$$$

     RDKit          2D

 33 37  0  0  0  0  0  0  0  0999 V2000
   23.8746  -19.7322    0.0000 C   0  0  0  0  0  0  0  0  0  0  0  0
   23.8735  -20.5518    0.0000 C   0  0  0  0  0  0  0  0  0  0  0  0
   24.5815  -20.9607    0.0000 C   0  0  0  0  0  0  0  0  0  0  0  0
   24.5797  -19.3234    0.0000 C   0  0  0  0  0  0  0  0  0  0  0  0
   25.2883  -19.7286    0.0000 C   0  0  0  0  0  0  0  0  0  0  0  0
   25.2886  -20.5518    0.0000 C   0  0  0  0  0  0  0  0  0  0  0  0
   26.0716  -20.8060    0.0000 N   0  0  0  0  0  0  0  0  0  0  0  0
   26.0711  -19.4741    0.0000 C   0  0  0  0  0  0  0  0  0  0  0  0
   26.5553  -20.1412    0.0000 C   0  0  0  0  0  0  0  0  0  0  0  0
   27.3706  -20.0559    0.0000 C   0  0  0  0  0  0  0  0  0  0  0  0
   27.7081  -19.3045    0.0000 N   0  0  0  0  0  0  0  0  0  0  0  0
   27.2239  -18.6374    0.0000 C   0  0  0  0  0  0  0  0  0  0  0  0
   26.4023  -18.7217    0.0000 C   0  0  0  0  0  0  0  0  0  0  0  0
   28.5210  -19.2206    0.0000 C   0  0  0  0  0  0  0  0  0  0  0  0
   29.0001  -19.8827    0.0000 O   0  0  0  0  0  0  0  0  0  0  0  0
   28.8548  -18.4747    0.0000 C   0  0  0  0  0  0  0  0  0  0  0  0
   29.6679  -18.3949    0.0000 C   0  0  0  0  0  0  0  0  0  0  0  0
   30.0017  -17.6498    0.0000 C   0  0  0  0  0  0  0  0  0  0  0  0
   29.5224  -16.9868    0.0000 C   0  0  0  0  0  0  0  0  0  0  0  0
   28.7056  -17.0737    0.0000 C   0  0  0  0  0  0  0  0  0  0  0  0
   28.3755  -17.8190    0.0000 C   0  0  0  0  0  0  0  0  0  0  0  0
   27.8506  -20.7146    0.0000 C   0  0  0  0  0  0  0  0  0  0  0  0
   27.5151  -21.4610    0.0000 C   0  0  0  0  0  0  0  0  0  0  0  0
   27.9935  -22.1226    0.0000 C   0  0  0  0  0  0  0  0  0  0  0  0
   28.8073  -22.0390    0.0000 C   0  0  0  0  0  0  0  0  0  0  0  0
   29.1404  -21.2882    0.0000 C   0  0  0  0  0  0  0  0  0  0  0  0
   28.6600  -20.6297    0.0000 C   0  0  0  0  0  0  0  0  0  0  0  0
   29.8552  -16.2404    0.0000 O   0  0  0  0  0  0  0  0  0  0  0  0
   30.6680  -16.1555    0.0000 C   0  0  0  0  0  0  0  0  0  0  0  0
   30.8146  -17.5663    0.0000 O   0  0  0  0  0  0  0  0  0  0  0  0
   31.2933  -18.2285    0.0000 C   0  0  0  0  0  0  0  0  0  0  0  0
   27.6593  -22.8683    0.0000 Cl  0  0  0  0  0  0  0  0  0  0  0  0
   29.2872  -22.7004    0.0000 Cl  0  0  0  0  0  0  0  0  0  0  0  0
  1  2  2  0
  2  3  1  0
  3  6  2  0
  5  4  2  0
  4  1  1  0
  5  6  1  0
  6  7  1  0
  7  9  1  0
  8  5  1  0
  8  9  2  0
  8 13  1  0
  9 10  1  0
 10 11  1  0
 11 12  1  0
 12 13  1  0
 11 14  1  0
 14 15  2  0
 14 16  1  0
 16 17  2  0
 17 18  1  0
 18 19  2  0
 19 20  1  0
 20 21  2  0
 21 16  1  0
 22 23  2  0
 23 24  1  0
 24 25  2  0
 25 26  1  0
 26 27  2  0
 27 22  1  0
 10 22  1  0
 19 28  1  0
 28 29  1  0
 18 30  1  0
 30 31  1  0
 24 32  1  0
 25 33  1  0
M  END
>  <Curated_InChIs>  (45) 
InChI=1S/C26H22Cl2N2O3/c1-32-22-10-8-16(14-23(22)33-2)26(31)30-12-11-18-17-5-3-4-6-21(17)29-24(18)25(30)15-7-9-19(27)20(28)13-15/h3-10,13-14,25,29H,11-12H2,1-2H3

>  <threshold>  (45) 
5

>  <pchembl>  (45) 
6.16

>  <Classification>  (45) 
1

>  <source>  (45) 
chembl_28

>  <SMILES>  (45) 
COc1ccc(C(=O)N2CCc3c([nH]c4ccccc34)C2c2ccc(Cl)c(Cl)c2)cc1OC

>  <InChIKey>  (45) 
BMRWUKOSTIFBRE-UHFFFAOYSA-N

$$$$

     RDKit          2D

 29 31  0  0  0  0  0  0  0  0999 V2000
   22.4568   -9.1609    0.0000 C   0  0  0  0  0  0  0  0  0  0  0  0
   21.7520   -9.5727    0.0000 C   0  0  0  0  0  0  0  0  0  0  0  0
   21.7563  -10.3898    0.0000 C   0  0  0  0  0  0  0  0  0  0  0  0
   21.0515  -10.8016    0.0000 C   0  0  0  0  0  0  0  0  0  0  0  0
   20.3423  -10.4004    0.0000 C   0  0  0  0  0  0  0  0  0  0  0  0
   20.3380   -9.5832    0.0000 C   0  0  0  0  0  0  0  0  0  0  0  0
   21.0387   -9.1673    0.0000 C   0  0  0  0  0  0  0  0  0  0  0  0
   23.1660   -9.5622    0.0000 O   0  0  0  0  0  0  0  0  0  0  0  0
   22.4484   -8.3437    0.0000 N   0  0  0  0  0  0  0  0  0  0  0  0
   23.1573   -7.9278    0.0000 C   0  0  0  0  0  0  0  0  0  0  0  0
   23.1489   -7.1107    0.0000 C   0  0  0  0  0  0  0  0  0  0  0  0
   23.8537   -6.6989    0.0000 C   0  0  0  0  0  0  0  0  0  0  0  0
   24.5670   -7.1002    0.0000 C   0  0  0  0  0  0  0  0  0  0  0  0
   24.5713   -7.9173    0.0000 C   0  0  0  0  0  0  0  0  0  0  0  0
   23.8665   -8.3332    0.0000 C   0  0  0  0  0  0  0  0  0  0  0  0
   25.2677   -6.6884    0.0000 C   0  0  0  0  0  0  0  0  0  0  0  0
   25.2634   -5.8712    0.0000 C   0  0  0  0  0  0  0  0  0  0  0  0
   25.9682   -5.4595    0.0000 C   0  0  0  0  0  0  0  0  0  0  0  0
   22.4655  -10.7952    0.0000 N   0  0  0  0  0  0  0  0  0  0  0  0
   22.4739  -11.6124    0.0000 C   0  0  0  0  0  0  0  0  0  0  0  0
   21.7691  -12.0242    0.0000 O   0  0  0  0  0  0  0  0  0  0  0  0
   23.1831  -12.0137    0.0000 N   0  0  0  0  0  0  0  0  0  0  0  0
   23.1874  -12.8308    0.0000 C   0  0  0  0  0  0  0  0  0  0  0  0
   23.9007  -13.2362    0.0000 C   0  0  0  0  0  0  0  0  0  0  0  0
   23.9050  -14.0534    0.0000 C   0  0  0  0  0  0  0  0  0  0  0  0
   23.2002  -14.4651    0.0000 C   0  0  0  0  0  0  0  0  0  0  0  0
   22.4910  -14.0639    0.0000 C   0  0  0  0  0  0  0  0  0  0  0  0
   22.4826  -13.2467    0.0000 C   0  0  0  0  0  0  0  0  0  0  0  0
   23.2045  -15.2823    0.0000 Br  0  0  0  0  0  0  0  0  0  0  0  0
  1  2  1  0
  2  3  1  0
  3  4  2  0
  4  5  1  0
  5  6  2  0
  6  7  1  0
  2  7  2  0
  1  8  2  0
  1  9  1  0
 10 11  2  0
 11 12  1  0
 12 13  2  0
 13 14  1  0
 14 15  2  0
 10 15  1  0
 16 17  1  0
 17 18  1  0
 13 16  1  0
  9 10  1  0
 19 20  1  0
 20 21  2  0
 20 22  1  0
 23 24  2  0
 24 25  1  0
 25 26  2  0
 26 27  1  0
 27 28  2  0
 23 28  1  0
 26 29  1  0
 22 23  1  0
  3 19  1  0
M  END
>  <Curated_InChIs>  (46) 
InChI=1S/C23H22BrN3O2/c1-2-5-16-8-12-18(13-9-16)25-22(28)20-6-3-4-7-21(20)27-23(29)26-19-14-10-17(24)11-15-19/h3-4,6-15H,2,5H2,1H3,(H,25,28)(H2,26,27,29)

>  <threshold>  (46) 
5

>  <pchembl>  (46) 
5.58, 6.02, 5.67

>  <Classification>  (46) 
1

>  <source>  (46) 
chembl_28

>  <SMILES>  (46) 
CCCc1ccc(NC(=O)c2ccccc2NC(=O)Nc2ccc(Br)cc2)cc1

>  <InChIKey>  (46) 
BUPATFDEDDOVME-UHFFFAOYSA-N

$$$$

     RDKit          2D

 16 18  0  0  0  0  0  0  0  0999 V2000
    2.4942   -0.0844    0.0000 O   0  0  0  0  0  0  0  0  0  0  0  0
    5.3276   -0.8394    0.0000 N   0  0  0  0  0  0  0  0  0  0  0  0
    7.3541    0.0871    0.0000 N   0  0  0  0  0  0  0  0  0  0  0  0
    5.7401    0.4302    0.0000 C   0  0  0  0  0  0  0  0  0  0  0  0
    4.9151    0.4302    0.0000 C   0  0  0  0  0  0  0  0  0  0  0  0
    5.9951   -0.3545    0.0000 C   0  0  0  0  0  0  0  0  0  0  0  0
    4.6602   -0.3545    0.0000 C   0  0  0  0  0  0  0  0  0  0  0  0
    6.8021   -0.5260    0.0000 C   0  0  0  0  0  0  0  0  0  0  0  0
    3.8532   -0.5260    0.0000 C   0  0  0  0  0  0  0  0  0  0  0  0
    4.3631    1.0432    0.0000 C   0  0  0  0  0  0  0  0  0  0  0  0
    6.2922    1.0432    0.0000 C   0  0  0  0  0  0  0  0  0  0  0  0
    3.3012    0.0871    0.0000 C   0  0  0  0  0  0  0  0  0  0  0  0
    3.5561    0.8717    0.0000 C   0  0  0  0  0  0  0  0  0  0  0  0
    7.0991    0.8717    0.0000 C   0  0  0  0  0  0  0  0  0  0  0  0
    7.0570   -1.3106    0.0000 C   0  0  0  0  0  0  0  0  0  0  0  0
    2.2393   -0.8691    0.0000 C   0  0  0  0  0  0  0  0  0  0  0  0
  1 12  1  0
  1 16  1  0
  2  6  1  0
  2  7  1  0
  3  8  2  0
  3 14  1  0
  4  5  1  0
  4  6  2  0
  4 11  1  0
  5  7  2  0
  5 10  1  0
  6  8  1  0
  7  9  1  0
  8 15  1  0
  9 12  2  0
 10 13  2  0
 11 14  2  0
 12 13  1  0
M  END
>  <Curated_InChIs>  (47) 
InChI=1S/C13H12N2O/c1-8-13-11(5-6-14-8)10-4-3-9(16-2)7-12(10)15-13/h3-7,15H,1-2H3

>  <threshold>  (47) 
5

>  <pchembl>  (47) 
5.29

>  <Classification>  (47) 
1

>  <source>  (47) 
chembl_28

>  <SMILES>  (47) 
COc1ccc2c(c1)[nH]c1c(C)nccc12

>  <InChIKey>  (47) 
BXNJHAXVSOCGBA-UHFFFAOYSA-N

$$$$

     RDKit          2D

 35 39  0  0  0  0  0  0  0  0999 V2000
   -2.5835   -5.2544    0.0000 C   0  0  0  0  0  0  0  0  0  0  0  0
   -2.5870   -3.7544    0.0000 C   0  0  0  0  0  0  0  0  0  0  0  0
   -3.8880   -3.0076    0.0000 C   0  0  0  0  0  0  0  0  0  0  0  0
   -5.1852   -3.7608    0.0000 C   0  0  0  0  0  0  0  0  0  0  0  0
   -5.1815   -5.2608    0.0000 C   0  0  0  0  0  0  0  0  0  0  0  0
   -3.8807   -6.0076    0.0000 C   0  0  0  0  0  0  0  0  0  0  0  0
   -1.2907   -2.9981    0.0000 N   0  0  0  0  0  0  0  0  0  0  0  0
   -1.2964   -1.4973    0.0000 C   0  0  0  0  0  0  0  0  0  0  0  0
   -1.2964    1.4973    0.0000 N   0  0  0  0  0  0  0  0  0  0  0  0
   -2.6111    0.7486    0.0000 C   0  0  0  0  0  0  0  0  0  0  0  0
   -2.6111   -0.7486    0.0000 N   0  0  0  0  0  0  0  0  0  0  0  0
    0.0000    0.7486    0.0000 C   0  0  0  0  0  0  0  0  0  0  0  0
    0.0000   -0.7486    0.0000 C   0  0  0  0  0  0  0  0  0  0  0  0
    1.2964   -1.4973    0.0000 C   0  0  0  0  0  0  0  0  0  0  0  0
    2.5929   -0.7486    0.0000 C   0  0  0  0  0  0  0  0  0  0  0  0
    2.5929    0.7486    0.0000 C   0  0  0  0  0  0  0  0  0  0  0  0
    1.2964    1.4973    0.0000 C   0  0  0  0  0  0  0  0  0  0  0  0
   -6.4779   -6.0170    0.0000 C   0  0  0  0  0  0  0  0  0  0  0  0
   -6.4721   -7.5179    0.0000 C   0  0  0  0  0  0  0  0  0  0  0  0
   -7.5196   -5.4214    0.0000 O   0  0  0  0  0  0  0  0  0  0  0  0
   -7.7685   -8.2741    0.0000 C   0  0  0  0  0  0  0  0  0  0  0  0
   -7.7626   -9.7749    0.0000 C   0  0  0  0  0  0  0  0  0  0  0  0
   -9.0572  -10.5327    0.0000 C   0  0  0  0  0  0  0  0  0  0  0  0
   -9.0484  -12.0326    0.0000 C   0  0  0  0  0  0  0  0  0  0  0  0
   -7.7449  -12.7750    0.0000 C   0  0  0  0  0  0  0  0  0  0  0  0
   -6.4503  -12.0173    0.0000 C   0  0  0  0  0  0  0  0  0  0  0  0
   -6.4592  -10.5173    0.0000 C   0  0  0  0  0  0  0  0  0  0  0  0
  -10.3421  -12.7934    0.0000 O   0  0  0  0  0  0  0  0  0  0  0  0
  -10.3333  -13.9934    0.0000 C   0  0  0  0  0  0  0  0  0  0  0  0
   -3.9086    1.5029    0.0000 C   0  0  0  0  0  0  0  0  0  0  0  0
   -5.2125    0.7617    0.0000 C   0  0  0  0  0  0  0  0  0  0  0  0
   -6.5065    1.5203    0.0000 C   0  0  0  0  0  0  0  0  0  0  0  0
   -6.4965    3.0203    0.0000 C   0  0  0  0  0  0  0  0  0  0  0  0
   -5.1925    3.7616    0.0000 C   0  0  0  0  0  0  0  0  0  0  0  0
   -3.8985    3.0029    0.0000 C   0  0  0  0  0  0  0  0  0  0  0  0
  1  2  2  0
  2  3  1  0
  3  4  2  0
  4  5  1  0
  5  6  2  0
  6  1  1  0
  2  7  1  0
  7  8  1  0
  8 13  2  0
 12  9  2  0
  9 10  1  0
 10 11  2  0
 11  8  1  0
 12 13  1  0
 13 14  1  0
 14 15  2  0
 15 16  1  0
 16 17  2  0
 17 12  1  0
  5 18  1  0
 18 19  1  0
 18 20  2  0
 19 21  2  0
 21 22  1  0
 22 23  2  0
 23 24  1  0
 24 25  2  0
 25 26  1  0
 26 27  2  0
 27 22  1  0
 24 28  1  0
 28 29  1  0
 10 30  1  0
 30 31  2  0
 31 32  1  0
 32 33  2  0
 33 34  1  0
 34 35  2  0
 35 30  1  0
M  END
>  <Curated_InChIs>  (48) 
InChI=1S/C30H23N3O2/c1-35-25-11-7-8-21(20-25)14-19-28(34)22-15-17-24(18-16-22)31-30-26-12-5-6-13-27(26)32-29(33-30)23-9-3-2-4-10-23/h2-20H,1H3,(H,31,32,33)

>  <threshold>  (48) 
5

>  <pchembl>  (48) 
6.06

>  <Classification>  (48) 
1

>  <source>  (48) 
chembl_28

>  <SMILES>  (48) 
COc1cccc(/C=C/C(=O)c2ccc(Nc3nc(-c4ccccc4)nc4ccccc34)cc2)c1

>  <InChIKey>  (48) 
BXXMOZUVOUKJNT-XMHGGMMESA-N

$$$$

     RDKit          2D

 32 34  0  0  0  0  0  0  0  0999 V2000
    2.1090  -27.9661    0.0000 C   0  0  0  0  0  0  0  0  0  0  0  0
    2.1131  -28.7915    0.0000 C   0  0  0  0  0  0  0  0  0  0  0  0
    2.8189  -27.5575    0.0000 C   0  0  0  0  0  0  0  0  0  0  0  0
    3.5247  -27.9661    0.0000 C   0  0  0  0  0  0  0  0  0  0  0  0
    3.5247  -28.7915    0.0000 C   0  0  0  0  0  0  0  0  0  0  0  0
    2.8189  -29.2001    0.0000 C   0  0  0  0  0  0  0  0  0  0  0  0
    4.2326  -29.1997    0.0000 N   0  0  0  0  0  0  0  0  0  0  0  0
    4.9401  -28.7907    0.0000 C   0  0  0  0  0  0  0  0  0  0  0  0
    5.6480  -29.1989    0.0000 C   0  0  0  0  0  0  0  0  0  0  0  0
    4.9396  -27.9735    0.0000 O   0  0  0  0  0  0  0  0  0  0  0  0
    6.3555  -28.7899    0.0000 O   0  0  0  0  0  0  0  0  0  0  0  0
    7.0634  -29.1980    0.0000 C   0  0  0  0  0  0  0  0  0  0  0  0
    7.0594  -30.0143    0.0000 C   0  0  0  0  0  0  0  0  0  0  0  0
    7.7665  -30.4224    0.0000 C   0  0  0  0  0  0  0  0  0  0  0  0
    8.4750  -30.0133    0.0000 C   0  0  0  0  0  0  0  0  0  0  0  0
    8.4719  -29.1919    0.0000 C   0  0  0  0  0  0  0  0  0  0  0  0
    7.7642  -28.7875    0.0000 C   0  0  0  0  0  0  0  0  0  0  0  0
    9.1835  -30.4205    0.0000 C   0  0  0  0  0  0  0  0  0  0  0  0
    9.1851  -31.2377    0.0000 O   0  0  0  0  0  0  0  0  0  0  0  0
    9.8904  -30.0106    0.0000 C   0  0  0  0  0  0  0  0  0  0  0  0
   10.5989  -30.4178    0.0000 C   0  0  0  0  0  0  0  0  0  0  0  0
   11.3058  -30.0078    0.0000 C   0  0  0  0  0  0  0  0  0  0  0  0
   12.0107  -30.4177    0.0000 C   0  0  0  0  0  0  0  0  0  0  0  0
   12.7171  -30.0084    0.0000 C   0  0  0  0  0  0  0  0  0  0  0  0
   12.7160  -29.1904    0.0000 C   0  0  0  0  0  0  0  0  0  0  0  0
   12.0025  -28.7833    0.0000 C   0  0  0  0  0  0  0  0  0  0  0  0
   11.2990  -29.1949    0.0000 C   0  0  0  0  0  0  0  0  0  0  0  0
    1.4006  -27.5588    0.0000 O   0  0  0  0  0  0  0  0  0  0  0  0
    1.4062  -29.2015    0.0000 O   0  0  0  0  0  0  0  0  0  0  0  0
    1.3991  -26.7416    0.0000 C   0  0  0  0  0  0  0  0  0  0  0  0
    0.6977  -28.7942    0.0000 C   0  0  0  0  0  0  0  0  0  0  0  0
   13.4224  -28.7795    0.0000 Cl  0  0  0  0  0  0  0  0  0  0  0  0
  2  1  2  0
  3  1  1  0
  4  3  2  0
  5  4  1  0
  6  2  1  0
  6  5  2  0
  5  7  1  0
  7  8  1  0
  8  9  1  0
  8 10  2  0
  9 11  1  0
 11 12  1  0
 12 13  2  0
 13 14  1  0
 14 15  2  0
 15 16  1  0
 16 17  2  0
 17 12  1  0
 15 18  1  0
 18 19  2  0
 18 20  1  0
 20 21  2  0
 21 22  1  0
 22 23  2  0
 23 24  1  0
 24 25  2  0
 25 26  1  0
 26 27  2  0
 27 22  1  0
  1 28  1  0
  2 29  1  0
 28 30  1  0
 29 31  1  0
 25 32  1  0
M  END
>  <Curated_InChIs>  (49) 
InChI=1S/C25H22ClNO5/c1-30-23-14-10-20(15-24(23)31-2)27-25(29)16-32-21-11-6-18(7-12-21)22(28)13-5-17-3-8-19(26)9-4-17/h3-15H,16H2,1-2H3,(H,27,29)

>  <threshold>  (49) 
5

>  <pchembl>  (49) 
5.16

>  <Classification>  (49) 
1

>  <source>  (49) 
chembl_28

>  <SMILES>  (49) 
COc1ccc(NC(=O)COc2ccc(C(=O)/C=C/c3ccc(Cl)cc3)cc2)cc1OC

>  <InChIKey>  (49) 
CBYXBMFHPGIEFI-WLRTZDKTSA-N

$$$$

     RDKit          2D

 25 27  0  0  0  0  0  0  0  0999 V2000
    0.6287    0.8910    0.0000 C   0  0  0  0  0  0  0  0  0  0  0  0
   -0.0857    0.4785    0.0000 C   0  0  0  0  0  0  0  0  0  0  0  0
    0.6287    1.7160    0.0000 C   0  0  0  0  0  0  0  0  0  0  0  0
    1.3432    0.4785    0.0000 C   0  0  0  0  0  0  0  0  0  0  0  0
   -0.8002    0.8910    0.0000 N   0  0  0  0  0  0  0  0  0  0  0  0
    1.3432    2.1285    0.0000 C   0  0  0  0  0  0  0  0  0  0  0  0
   -0.0857   -0.3465    0.0000 N   0  0  0  0  0  0  0  0  0  0  0  0
    2.0577    0.8910    0.0000 C   0  0  0  0  0  0  0  0  0  0  0  0
    2.0577    1.7160    0.0000 C   0  0  0  0  0  0  0  0  0  0  0  0
   -0.0857    2.1285    0.0000 N   0  0  0  0  0  0  0  0  0  0  0  0
   -0.8002   -1.5840    0.0000 C   0  0  0  0  0  0  0  0  0  0  0  0
   -1.5147   -1.9965    0.0000 C   0  0  0  0  0  0  0  0  0  0  0  0
   -0.8002    1.7160    0.0000 C   0  0  0  0  0  0  0  0  0  0  0  0
   -0.8002   -0.7590    0.0000 C   0  0  0  0  0  0  0  0  0  0  0  0
   -2.2291   -1.5840    0.0000 C   0  0  0  0  0  0  0  0  0  0  0  0
   -2.2291   -0.7590    0.0000 C   0  0  0  0  0  0  0  0  0  0  0  0
   -1.5147   -0.3465    0.0000 C   0  0  0  0  0  0  0  0  0  0  0  0
    2.7721    0.4785    0.0000 O   0  0  0  0  0  0  0  0  0  0  0  0
    2.7721    2.1285    0.0000 O   0  0  0  0  0  0  0  0  0  0  0  0
   -1.5147   -2.8215    0.0000 O   0  0  0  0  0  0  0  0  0  0  0  0
   -2.9436   -1.9965    0.0000 O   0  0  0  0  0  0  0  0  0  0  0  0
    3.4866    0.8910    0.0000 C   0  0  0  0  0  0  0  0  0  0  0  0
   -2.2291   -3.2340    0.0000 C   0  0  0  0  0  0  0  0  0  0  0  0
    3.4866    1.7160    0.0000 C   0  0  0  0  0  0  0  0  0  0  0  0
   -2.9436   -2.8215    0.0000 C   0  0  0  0  0  0  0  0  0  0  0  0
  1  2  1  0
  1  3  1  0
  1  4  2  0
  2  5  2  0
  3  6  2  0
  2  7  1  0
  4  8  1  0
  6  9  1  0
  8  9  2  0
  3 10  1  0
 11 12  2  0
  5 13  1  0
 10 13  2  0
  7 14  1  0
 11 14  1  0
 12 15  1  0
 15 16  2  0
 14 17  2  0
 16 17  1  0
  8 18  1  0
  9 19  1  0
 12 20  1  0
 15 21  1  0
 18 22  1  0
 20 23  1  0
 19 24  1  0
 21 25  1  0
M  END
>  <Curated_InChIs>  (50) 
InChI=1S/C18H19N3O4/c1-22-14-6-5-11(7-15(14)23-2)21-18-12-8-16(24-3)17(25-4)9-13(12)19-10-20-18/h5-10H,1-4H3,(H,19,20,21)

>  <threshold>  (50) 
5

>  <pchembl>  (50) 
5.42, 5.13

>  <Classification>  (50) 
1

>  <source>  (50) 
chembl_28

>  <SMILES>  (50) 
COc1ccc(Nc2ncnc3cc(OC)c(OC)cc23)cc1OC

>  <InChIKey>  (50) 
CCHZXKUIBPNVKD-UHFFFAOYSA-N

$$$$

     RDKit          2D

 26 29  0  0  0  0  0  0  0  0999 V2000
   14.8069   -6.3156    0.0000 C   0  0  0  0  0  0  0  0  0  0  0  0
   14.1020   -6.7242    0.0000 N   0  0  0  0  0  0  0  0  0  0  0  0
   13.3929   -6.3156    0.0000 C   0  0  0  0  0  0  0  0  0  0  0  0
   13.3929   -5.4984    0.0000 C   0  0  0  0  0  0  0  0  0  0  0  0
   14.1020   -5.0898    0.0000 C   0  0  0  0  0  0  0  0  0  0  0  0
   14.8069   -5.4984    0.0000 N   0  0  0  0  0  0  0  0  0  0  0  0
   12.6838   -5.0898    0.0000 C   0  0  0  0  0  0  0  0  0  0  0  0
   11.9747   -5.4984    0.0000 C   0  0  0  0  0  0  0  0  0  0  0  0
   11.9747   -6.3156    0.0000 C   0  0  0  0  0  0  0  0  0  0  0  0
   12.6838   -6.7242    0.0000 N   0  0  0  0  0  0  0  0  0  0  0  0
   14.1020   -4.2726    0.0000 N   0  0  0  0  0  0  0  0  0  0  0  0
   15.5160   -6.7242    0.0000 C   0  0  0  0  0  0  0  0  0  0  0  0
   15.5160   -7.5414    0.0000 C   0  0  0  0  0  0  0  0  0  0  0  0
   16.2210   -7.9500    0.0000 C   0  0  0  0  0  0  0  0  0  0  0  0
   16.9301   -7.5414    0.0000 C   0  0  0  0  0  0  0  0  0  0  0  0
   16.9301   -6.7242    0.0000 C   0  0  0  0  0  0  0  0  0  0  0  0
   16.2210   -6.3156    0.0000 C   0  0  0  0  0  0  0  0  0  0  0  0
   16.2210   -8.7671    0.0000 O   0  0  0  0  0  0  0  0  0  0  0  0
   16.9301   -9.1757    0.0000 C   0  0  0  0  0  0  0  0  0  0  0  0
   14.8069   -3.8640    0.0000 C   0  0  0  0  0  0  0  0  0  0  0  0
   15.5160   -4.2726    0.0000 C   0  0  0  0  0  0  0  0  0  0  0  0
   16.2210   -3.8640    0.0000 C   0  0  0  0  0  0  0  0  0  0  0  0
   16.2210   -3.0468    0.0000 C   0  0  0  0  0  0  0  0  0  0  0  0
   15.5160   -2.6382    0.0000 C   0  0  0  0  0  0  0  0  0  0  0  0
   14.8069   -3.0468    0.0000 C   0  0  0  0  0  0  0  0  0  0  0  0
   16.9301   -4.2726    0.0000 Cl  0  0  0  0  0  0  0  0  0  0  0  0
  1  2  2  0
  2  3  1  0
  3  4  2  0
  4  5  1  0
  5  6  2  0
  1  6  1  0
  7  8  2  0
  8  9  1  0
  9 10  2  0
  3 10  1  0
  4  7  1  0
  5 11  1  0
 12 13  2  0
 13 14  1  0
 14 15  2  0
 15 16  1  0
 16 17  2  0
 12 17  1  0
 18 19  1  0
 14 18  1  0
  1 12  1  0
 20 21  2  0
 21 22  1  0
 22 23  2  0
 23 24  1  0
 24 25  2  0
 20 25  1  0
 22 26  1  0
 11 20  1  0
M  END
>  <Curated_InChIs>  (51) 
InChI=1S/C20H15ClN4O/c1-26-16-8-2-5-13(11-16)18-24-19-17(9-4-10-22-19)20(25-18)23-15-7-3-6-14(21)12-15/h2-12H,1H3,(H,22,23,24,25)

>  <threshold>  (51) 
5

>  <pchembl>  (51) 
6.2

>  <Classification>  (51) 
1

>  <source>  (51) 
chembl_28

>  <SMILES>  (51) 
COc1cccc(-c2nc(Nc3cccc(Cl)c3)c3cccnc3n2)c1

>  <InChIKey>  (51) 
CMBSKRVGHWYVQH-UHFFFAOYSA-N

$$$$

     RDKit          2D

 26 29  0  0  0  0  0  0  0  0999 V2000
   -3.8764    2.9156    0.0000 S   0  0  0  0  0  0  0  0  0  0  0  0
    1.9256   -0.3799    0.0000 O   0  0  0  0  0  0  0  0  0  0  0  0
   -3.0757    0.8576    0.0000 N   0  0  0  0  0  0  0  0  0  0  0  0
   -2.3612    2.0951    0.0000 N   0  0  0  0  0  0  0  0  0  0  0  0
   -2.3612   -0.3799    0.0000 N   0  0  0  0  0  0  0  0  0  0  0  0
    0.4967   -0.3799    0.0000 N   0  0  0  0  0  0  0  0  0  0  0  0
   -1.6468    0.8576    0.0000 C   0  0  0  0  0  0  0  0  0  0  0  0
   -2.3612    0.4451    0.0000 C   0  0  0  0  0  0  0  0  0  0  0  0
   -1.6468    1.6826    0.0000 C   0  0  0  0  0  0  0  0  0  0  0  0
   -3.0757    1.6826    0.0000 C   0  0  0  0  0  0  0  0  0  0  0  0
   -3.7902    2.0951    0.0000 C   0  0  0  0  0  0  0  0  0  0  0  0
   -0.9323    0.4451    0.0000 C   0  0  0  0  0  0  0  0  0  0  0  0
   -1.6468   -0.7924    0.0000 C   0  0  0  0  0  0  0  0  0  0  0  0
   -0.9323    2.0951    0.0000 C   0  0  0  0  0  0  0  0  0  0  0  0
   -4.5438    1.7595    0.0000 C   0  0  0  0  0  0  0  0  0  0  0  0
   -0.2178    0.8576    0.0000 C   0  0  0  0  0  0  0  0  0  0  0  0
   -0.2178    1.6826    0.0000 C   0  0  0  0  0  0  0  0  0  0  0  0
   -0.9323   -0.3799    0.0000 C   0  0  0  0  0  0  0  0  0  0  0  0
   -0.2178   -0.7924    0.0000 C   0  0  0  0  0  0  0  0  0  0  0  0
   -1.6468   -1.6174    0.0000 C   0  0  0  0  0  0  0  0  0  0  0  0
   -4.6834    3.0871    0.0000 C   0  0  0  0  0  0  0  0  0  0  0  0
   -5.0959    2.3726    0.0000 C   0  0  0  0  0  0  0  0  0  0  0  0
   -0.2178   -1.6174    0.0000 C   0  0  0  0  0  0  0  0  0  0  0  0
   -0.9323   -2.0299    0.0000 C   0  0  0  0  0  0  0  0  0  0  0  0
    1.2111   -0.7924    0.0000 C   0  0  0  0  0  0  0  0  0  0  0  0
    1.2111   -1.6174    0.0000 C   0  0  0  0  0  0  0  0  0  0  0  0
  1 11  1  0
  1 21  1  0
  2 25  2  0
  3  8  2  0
  3 10  1  0
  4  9  1  0
  4 10  2  0
  5  8  1  0
  5 13  1  0
  6 19  1  0
  6 25  1  0
  7  8  1  0
  7  9  2  0
  7 12  1  0
  9 14  1  0
 10 11  1  0
 11 15  2  0
 12 16  2  0
 13 18  2  0
 13 20  1  0
 14 17  2  0
 15 22  1  0
 16 17  1  0
 18 19  1  0
 19 23  2  0
 20 24  2  0
 21 22  2  0
 23 24  1  0
 25 26  1  0
M  END
>  <Curated_InChIs>  (52) 
InChI=1S/C20H16N4OS/c1-13(25)21-14-6-4-7-15(12-14)22-19-16-8-2-3-9-17(16)23-20(24-19)18-10-5-11-26-18/h2-12H,1H3,(H,21,25)(H,22,23,24)

>  <threshold>  (52) 
5

>  <pchembl>  (52) 
6.44

>  <Classification>  (52) 
1

>  <source>  (52) 
chembl_28

>  <SMILES>  (52) 
CC(=O)Nc1cccc(Nc2nc(-c3cccs3)nc3ccccc23)c1

>  <InChIKey>  (52) 
CMIZQGPTGPSAMK-UHFFFAOYSA-N

$$$$

     RDKit          2D

 25 28  0  0  0  0  0  0  0  0999 V2000
    1.8022   -3.7186    0.0000 C   0  0  0  0  0  0  0  0  0  0  0  0
    1.8010   -4.5381    0.0000 C   0  0  0  0  0  0  0  0  0  0  0  0
    2.5091   -4.9471    0.0000 C   0  0  0  0  0  0  0  0  0  0  0  0
    2.5073   -3.3097    0.0000 C   0  0  0  0  0  0  0  0  0  0  0  0
    3.2159   -3.7150    0.0000 C   0  0  0  0  0  0  0  0  0  0  0  0
    3.2162   -4.5382    0.0000 C   0  0  0  0  0  0  0  0  0  0  0  0
    3.9991   -4.7923    0.0000 N   0  0  0  0  0  0  0  0  0  0  0  0
    3.9987   -3.4604    0.0000 C   0  0  0  0  0  0  0  0  0  0  0  0
    4.4829   -4.1276    0.0000 C   0  0  0  0  0  0  0  0  0  0  0  0
    5.2982   -4.0423    0.0000 C   0  0  0  0  0  0  0  0  0  0  0  0
    5.6357   -3.2909    0.0000 N   0  0  0  0  0  0  0  0  0  0  0  0
    5.1515   -2.6238    0.0000 C   0  0  0  0  0  0  0  0  0  0  0  0
    4.3298   -2.7081    0.0000 C   0  0  0  0  0  0  0  0  0  0  0  0
    6.4486   -3.2070    0.0000 C   0  0  0  0  0  0  0  0  0  0  0  0
    6.9276   -3.8690    0.0000 O   0  0  0  0  0  0  0  0  0  0  0  0
    6.7823   -2.4611    0.0000 C   0  0  0  0  0  0  0  0  0  0  0  0
    7.5954   -2.3812    0.0000 C   0  0  0  0  0  0  0  0  0  0  0  0
    7.9292   -1.6361    0.0000 C   0  0  0  0  0  0  0  0  0  0  0  0
    7.4500   -0.9732    0.0000 C   0  0  0  0  0  0  0  0  0  0  0  0
    6.6332   -1.0601    0.0000 C   0  0  0  0  0  0  0  0  0  0  0  0
    6.3031   -1.8054    0.0000 C   0  0  0  0  0  0  0  0  0  0  0  0
    5.7773   -4.7043    0.0000 C   0  0  0  0  0  0  0  0  0  0  0  0
    5.4435   -5.4502    0.0000 C   0  0  0  0  0  0  0  0  0  0  0  0
    5.9226   -6.1122    0.0000 C   0  0  0  0  0  0  0  0  0  0  0  0
    4.6307   -5.5341    0.0000 C   0  0  0  0  0  0  0  0  0  0  0  0
  1  2  2  0
  2  3  1  0
  3  6  2  0
  5  4  2  0
  4  1  1  0
  5  6  1  0
  6  7  1  0
  7  9  1  0
  8  5  1  0
  8  9  2  0
  8 13  1  0
  9 10  1  0
 10 11  1  0
 11 12  1  0
 12 13  1  0
 11 14  1  0
 14 15  2  0
 14 16  1  0
 16 17  2  0
 17 18  1  0
 18 19  2  0
 19 20  1  0
 20 21  2  0
 21 16  1  0
 10 22  1  0
 22 23  1  0
 23 24  1  0
 23 25  1  0
M  END
>  <Curated_InChIs>  (53) 
InChI=1S/C22H24N2O/c1-15(2)14-20-21-18(17-10-6-7-11-19(17)23-21)12-13-24(20)22(25)16-8-4-3-5-9-16/h3-11,15,20,23H,12-14H2,1-2H3

>  <threshold>  (53) 
5

>  <pchembl>  (53) 
5.63

>  <Classification>  (53) 
1

>  <source>  (53) 
chembl_28

>  <SMILES>  (53) 
CC(C)CC1c2[nH]c3ccccc3c2CCN1C(=O)c1ccccc1

>  <InChIKey>  (53) 
CXNXVUFJOWJCJJ-UHFFFAOYSA-N

$$$$

     RDKit          2D

 27 30  0  0  0  0  0  0  0  0999 V2000
   12.0577   -4.7952    0.0000 C   0  0  0  0  0  0  0  0  0  0  0  0
   11.3527   -5.2038    0.0000 C   0  0  0  0  0  0  0  0  0  0  0  0
   10.6437   -4.7952    0.0000 C   0  0  0  0  0  0  0  0  0  0  0  0
    9.9346   -5.2038    0.0000 C   0  0  0  0  0  0  0  0  0  0  0  0
    9.9346   -6.0209    0.0000 C   0  0  0  0  0  0  0  0  0  0  0  0
   10.6437   -6.4295    0.0000 C   0  0  0  0  0  0  0  0  0  0  0  0
   11.3527   -6.0209    0.0000 C   0  0  0  0  0  0  0  0  0  0  0  0
   12.7668   -4.3866    0.0000 N   0  0  0  0  0  0  0  0  0  0  0  0
    9.2255   -6.4295    0.0000 N   0  0  0  0  0  0  0  0  0  0  0  0
    9.9346   -8.4766    0.0000 C   0  0  0  0  0  0  0  0  0  0  0  0
    9.2255   -8.8852    0.0000 N   0  0  0  0  0  0  0  0  0  0  0  0
    8.5205   -8.4766    0.0000 C   0  0  0  0  0  0  0  0  0  0  0  0
    8.5205   -7.6595    0.0000 C   0  0  0  0  0  0  0  0  0  0  0  0
    9.2255   -7.2509    0.0000 C   0  0  0  0  0  0  0  0  0  0  0  0
    9.9346   -7.6595    0.0000 N   0  0  0  0  0  0  0  0  0  0  0  0
    7.8114   -7.2509    0.0000 C   0  0  0  0  0  0  0  0  0  0  0  0
    7.1065   -7.6595    0.0000 C   0  0  0  0  0  0  0  0  0  0  0  0
    7.1065   -8.4766    0.0000 C   0  0  0  0  0  0  0  0  0  0  0  0
    7.8114   -8.8852    0.0000 N   0  0  0  0  0  0  0  0  0  0  0  0
   10.6437   -8.8852    0.0000 C   0  0  0  0  0  0  0  0  0  0  0  0
   10.6437   -9.7024    0.0000 C   0  0  0  0  0  0  0  0  0  0  0  0
   11.3527  -10.1110    0.0000 C   0  0  0  0  0  0  0  0  0  0  0  0
   12.0577   -9.7024    0.0000 C   0  0  0  0  0  0  0  0  0  0  0  0
   12.0577   -8.8852    0.0000 C   0  0  0  0  0  0  0  0  0  0  0  0
   11.3527   -8.4766    0.0000 C   0  0  0  0  0  0  0  0  0  0  0  0
   11.3527  -10.9282    0.0000 O   0  0  0  0  0  0  0  0  0  0  0  0
   12.0577  -11.3368    0.0000 C   0  0  0  0  0  0  0  0  0  0  0  0
  1  2  1  0
  2  3  2  0
  3  4  1  0
  4  5  2  0
  5  6  1  0
  6  7  2  0
  2  7  1  0
  1  8  3  0
 10 11  2  0
 11 12  1  0
 12 13  2  0
 13 14  1  0
 14 15  2  0
 10 15  1  0
 16 17  2  0
 17 18  1  0
 18 19  2  0
 12 19  1  0
 13 16  1  0
 20 21  2  0
 21 22  1  0
 22 23  2  0
 23 24  1  0
 24 25  2  0
 20 25  1  0
 26 27  1  0
 22 26  1  0
 10 20  1  0
  9 14  1  0
  5  9  1  0
M  END
>  <Curated_InChIs>  (54) 
InChI=1S/C21H15N5O/c1-27-17-5-2-4-15(12-17)19-25-20-18(6-3-11-23-20)21(26-19)24-16-9-7-14(13-22)8-10-16/h2-12H,1H3,(H,23,24,25,26)

>  <threshold>  (54) 
5

>  <pchembl>  (54) 
6.06

>  <Classification>  (54) 
1

>  <source>  (54) 
chembl_28

>  <SMILES>  (54) 
COc1cccc(-c2nc(Nc3ccc(C#N)cc3)c3cccnc3n2)c1

>  <InChIKey>  (54) 
CYPHXGDCKLHLRF-UHFFFAOYSA-N

$$$$

     RDKit          2D

 24 26  0  0  0  0  0  0  0  0999 V2000
   16.0659  -10.3004    0.0000 N   0  0  0  0  0  0  0  0  0  0  0  0
   16.7841   -9.9079    0.0000 C   0  0  0  0  0  0  0  0  0  0  0  0
   16.8047   -9.0898    0.0000 N   0  0  0  0  0  0  0  0  0  0  0  0
   16.1072   -8.6641    0.0000 C   0  0  0  0  0  0  0  0  0  0  0  0
   15.3890   -9.0565    0.0000 C   0  0  0  0  0  0  0  0  0  0  0  0
   14.6915   -8.6308    0.0000 C   0  0  0  0  0  0  0  0  0  0  0  0
   13.9733   -9.0232    0.0000 C   0  0  0  0  0  0  0  0  0  0  0  0
   13.9548   -9.8378    0.0000 C   0  0  0  0  0  0  0  0  0  0  0  0
   14.6524  -10.2635    0.0000 C   0  0  0  0  0  0  0  0  0  0  0  0
   15.3684   -9.8746    0.0000 C   0  0  0  0  0  0  0  0  0  0  0  0
   16.1256   -7.8495    0.0000 N   0  0  0  0  0  0  0  0  0  0  0  0
   16.8438   -7.4571    0.0000 C   0  0  0  0  0  0  0  0  0  0  0  0
   16.8644   -6.6390    0.0000 C   0  0  0  0  0  0  0  0  0  0  0  0
   17.5826   -6.2465    0.0000 C   0  0  0  0  0  0  0  0  0  0  0  0
   18.2802   -6.6723    0.0000 C   0  0  0  0  0  0  0  0  0  0  0  0
   18.2595   -7.4904    0.0000 C   0  0  0  0  0  0  0  0  0  0  0  0
   17.5414   -7.8828    0.0000 C   0  0  0  0  0  0  0  0  0  0  0  0
   16.1669   -6.2132    0.0000 N   0  0  0  0  0  0  0  0  0  0  0  0
   15.4487   -6.6057    0.0000 O   0  0  0  0  0  0  0  0  0  0  0  0
   16.1875   -5.3951    0.0000 O   0  0  0  0  0  0  0  0  0  0  0  0
   13.2366  -10.2302    0.0000 O   0  0  0  0  0  0  0  0  0  0  0  0
   13.2160  -11.0484    0.0000 C   0  0  0  0  0  0  0  0  0  0  0  0
   13.2757   -8.5975    0.0000 O   0  0  0  0  0  0  0  0  0  0  0  0
   12.5597   -8.9864    0.0000 C   0  0  0  0  0  0  0  0  0  0  0  0
  1  2  2  0
  2  3  1  0
  3  4  2  0
  4  5  1  0
  5  6  2  0
  6  7  1  0
  7  8  2  0
  8  9  1  0
  9 10  2  0
  1 10  1  0
  5 10  1  0
  4 11  1  0
 12 13  2  0
 13 14  1  0
 14 15  2  0
 15 16  1  0
 16 17  2  0
 12 17  1  0
 18 19  2  0
 18 20  1  0
 13 18  1  0
 11 12  1  0
 21 22  1  0
  8 21  1  0
 23 24  1  0
  7 23  1  0
M  CHG  2  18   1  20  -1
M  END
>  <Curated_InChIs>  (55) 
InChI=1S/C16H14N4O4/c1-23-14-7-10-12(8-15(14)24-2)17-9-18-16(10)19-11-5-3-4-6-13(11)20(21)22/h3-9H,1-2H3,(H,17,18,19)

>  <threshold>  (55) 
5

>  <pchembl>  (55) 
5.4, 5.42

>  <Classification>  (55) 
1

>  <source>  (55) 
chembl_28

>  <SMILES>  (55) 
COc1cc2ncnc(Nc3ccccc3[N+](=O)[O-])c2cc1OC

>  <InChIKey>  (55) 
DBRZNTSHNHLAPY-UHFFFAOYSA-N

$$$$

     RDKit          2D

 29 33  0  0  0  0  0  0  0  0999 V2000
   16.6891  -24.2970    0.0000 C   0  0  0  0  0  0  0  0  0  0  0  0
   16.6880  -25.1165    0.0000 C   0  0  0  0  0  0  0  0  0  0  0  0
   17.3960  -25.5255    0.0000 C   0  0  0  0  0  0  0  0  0  0  0  0
   17.3942  -23.8881    0.0000 N   0  0  0  0  0  0  0  0  0  0  0  0
   18.1033  -24.2924    0.0000 C   0  0  0  0  0  0  0  0  0  0  0  0
   18.1036  -25.1124    0.0000 C   0  0  0  0  0  0  0  0  0  0  0  0
   18.8831  -24.0389    0.0000 S   0  0  0  0  0  0  0  0  0  0  0  0
   19.3653  -24.7020    0.0000 C   0  0  0  0  0  0  0  0  0  0  0  0
   18.8811  -25.3621    0.0000 C   0  0  0  0  0  0  0  0  0  0  0  0
   19.2108  -26.1093    0.0000 N   0  0  0  0  0  0  0  0  0  0  0  0
   20.0244  -26.1976    0.0000 C   0  0  0  0  0  0  0  0  0  0  0  0
   20.5072  -25.5327    0.0000 N   0  0  0  0  0  0  0  0  0  0  0  0
   20.1748  -24.7882    0.0000 C   0  0  0  0  0  0  0  0  0  0  0  0
   15.9813  -23.8885    0.0000 C   0  0  0  0  0  0  0  0  0  0  0  0
   17.3979  -26.3426    0.0000 C   0  0  0  0  0  0  0  0  0  0  0  0
   20.6553  -24.1271    0.0000 N   0  0  0  0  0  0  0  0  0  0  0  0
   21.4646  -24.2172    0.0000 C   0  0  0  0  0  0  0  0  0  0  0  0
   21.9446  -23.5602    0.0000 C   0  0  0  0  0  0  0  0  0  0  0  0
   21.6160  -22.8116    0.0000 N   0  0  0  0  0  0  0  0  0  0  0  0
   20.8026  -22.7240    0.0000 C   0  0  0  0  0  0  0  0  0  0  0  0
   20.3177  -23.3850    0.0000 C   0  0  0  0  0  0  0  0  0  0  0  0
   22.0990  -22.1524    0.0000 C   0  0  0  0  0  0  0  0  0  0  0  0
   22.9114  -22.2410    0.0000 C   0  0  0  0  0  0  0  0  0  0  0  0
   23.2363  -22.9882    0.0000 C   0  0  0  0  0  0  0  0  0  0  0  0
   24.0478  -23.0771    0.0000 C   0  0  0  0  0  0  0  0  0  0  0  0
   24.5317  -22.4175    0.0000 C   0  0  0  0  0  0  0  0  0  0  0  0
   24.1981  -21.6668    0.0000 C   0  0  0  0  0  0  0  0  0  0  0  0
   23.3875  -21.5815    0.0000 C   0  0  0  0  0  0  0  0  0  0  0  0
   22.7516  -23.6462    0.0000 Cl  0  0  0  0  0  0  0  0  0  0  0  0
  1  2  2  0
  2  3  1  0
  3  6  2  0
  5  4  2  0
  4  1  1  0
  5  6  1  0
  6  9  1  0
  8  7  1  0
  7  5  1  0
  8  9  2  0
  9 10  1  0
 10 11  2  0
 11 12  1  0
 12 13  2  0
 13  8  1  0
  1 14  1  0
  3 15  1  0
 13 16  1  0
 16 17  1  0
 16 21  1  0
 17 18  1  0
 18 19  1  0
 19 20  1  0
 20 21  1  0
 19 22  1  0
 22 23  1  0
 23 24  2  0
 24 25  1  0
 25 26  2  0
 26 27  1  0
 27 28  2  0
 28 23  1  0
 24 29  1  0
M  END
>  <Curated_InChIs>  (56) 
InChI=1S/C22H22ClN5S/c1-14-11-15(2)26-22-18(14)19-20(29-22)21(25-13-24-19)28-9-7-27(8-10-28)12-16-5-3-4-6-17(16)23/h3-6,11,13H,7-10,12H2,1-2H3

>  <threshold>  (56) 
5

>  <pchembl>  (56) 
5.06

>  <Classification>  (56) 
1

>  <source>  (56) 
chembl_28

>  <SMILES>  (56) 
Cc1cc(C)c2c(n1)sc1c(N3CCN(Cc4ccccc4Cl)CC3)ncnc12

>  <InChIKey>  (56) 
DPWHWIYFNKEXGB-UHFFFAOYSA-N

$$$$

     RDKit          2D

 29 33  0  0  0  0  0  0  0  0999 V2000
   31.6173  -12.0845    0.0000 C   0  0  0  0  0  0  0  0  0  0  0  0
   31.6161  -12.9040    0.0000 C   0  0  0  0  0  0  0  0  0  0  0  0
   32.3242  -13.3130    0.0000 C   0  0  0  0  0  0  0  0  0  0  0  0
   32.3224  -11.6756    0.0000 C   0  0  0  0  0  0  0  0  0  0  0  0
   33.0310  -12.0809    0.0000 C   0  0  0  0  0  0  0  0  0  0  0  0
   33.0313  -12.9041    0.0000 C   0  0  0  0  0  0  0  0  0  0  0  0
   33.8142  -13.1582    0.0000 N   0  0  0  0  0  0  0  0  0  0  0  0
   33.8138  -11.8263    0.0000 C   0  0  0  0  0  0  0  0  0  0  0  0
   34.2980  -12.4935    0.0000 C   0  0  0  0  0  0  0  0  0  0  0  0
   35.1133  -12.4082    0.0000 C   0  0  0  0  0  0  0  0  0  0  0  0
   35.4508  -11.6568    0.0000 N   0  0  0  0  0  0  0  0  0  0  0  0
   34.9666  -10.9897    0.0000 C   0  0  0  0  0  0  0  0  0  0  0  0
   34.1449  -11.0739    0.0000 C   0  0  0  0  0  0  0  0  0  0  0  0
   36.2637  -11.5729    0.0000 C   0  0  0  0  0  0  0  0  0  0  0  0
   36.7427  -12.2349    0.0000 O   0  0  0  0  0  0  0  0  0  0  0  0
   36.5974  -10.8270    0.0000 C   0  0  0  0  0  0  0  0  0  0  0  0
   37.4106  -10.7471    0.0000 C   0  0  0  0  0  0  0  0  0  0  0  0
   37.7443  -10.0020    0.0000 C   0  0  0  0  0  0  0  0  0  0  0  0
   37.2651   -9.3390    0.0000 C   0  0  0  0  0  0  0  0  0  0  0  0
   36.4483   -9.4260    0.0000 C   0  0  0  0  0  0  0  0  0  0  0  0
   36.1182  -10.1713    0.0000 C   0  0  0  0  0  0  0  0  0  0  0  0
   35.5932  -13.0668    0.0000 C   0  0  0  0  0  0  0  0  0  0  0  0
   35.2578  -13.8132    0.0000 C   0  0  0  0  0  0  0  0  0  0  0  0
   35.7362  -14.4748    0.0000 C   0  0  0  0  0  0  0  0  0  0  0  0
   36.5500  -14.3913    0.0000 C   0  0  0  0  0  0  0  0  0  0  0  0
   36.8831  -13.6404    0.0000 C   0  0  0  0  0  0  0  0  0  0  0  0
   36.4027  -12.9819    0.0000 C   0  0  0  0  0  0  0  0  0  0  0  0
   35.4020  -15.2206    0.0000 F   0  0  0  0  0  0  0  0  0  0  0  0
   37.0299  -15.0526    0.0000 F   0  0  0  0  0  0  0  0  0  0  0  0
  1  2  2  0
  2  3  1  0
  3  6  2  0
  5  4  2  0
  4  1  1  0
  5  6  1  0
  6  7  1  0
  7  9  1  0
  8  5  1  0
  8  9  2  0
  8 13  1  0
  9 10  1  0
 10 11  1  0
 11 12  1  0
 12 13  1  0
 11 14  1  0
 14 15  2  0
 14 16  1  0
 16 17  2  0
 17 18  1  0
 18 19  2  0
 19 20  1  0
 20 21  2  0
 21 16  1  0
 22 23  2  0
 23 24  1  0
 24 25  2  0
 25 26  1  0
 26 27  2  0
 27 22  1  0
 10 22  1  0
 24 28  1  0
 25 29  1  0
M  END
>  <Curated_InChIs>  (57) 
InChI=1S/C24H18F2N2O/c25-19-11-10-16(14-20(19)26)23-22-18(17-8-4-5-9-21(17)27-22)12-13-28(23)24(29)15-6-2-1-3-7-15/h1-11,14,23,27H,12-13H2

>  <threshold>  (57) 
5

>  <pchembl>  (57) 
5.75, 5.96

>  <Classification>  (57) 
1

>  <source>  (57) 
chembl_28

>  <SMILES>  (57) 
O=C(c1ccccc1)N1CCc2c([nH]c3ccccc23)C1c1ccc(F)c(F)c1

>  <InChIKey>  (57) 
DRYKARSVUQXTQL-UHFFFAOYSA-N

$$$$

     RDKit          2D

 26 29  0  0  0  0  0  0  0  0999 V2000
   25.8928   -4.8825    0.0000 C   0  0  0  0  0  0  0  0  0  0  0  0
   25.8917   -5.7020    0.0000 C   0  0  0  0  0  0  0  0  0  0  0  0
   26.5997   -6.1110    0.0000 C   0  0  0  0  0  0  0  0  0  0  0  0
   26.5979   -4.4736    0.0000 C   0  0  0  0  0  0  0  0  0  0  0  0
   27.3065   -4.8789    0.0000 C   0  0  0  0  0  0  0  0  0  0  0  0
   27.3073   -5.6979    0.0000 C   0  0  0  0  0  0  0  0  0  0  0  0
   28.0158   -6.1050    0.0000 N   0  0  0  0  0  0  0  0  0  0  0  0
   28.7241   -5.6941    0.0000 C   0  0  0  0  0  0  0  0  0  0  0  0
   28.7194   -4.8720    0.0000 N   0  0  0  0  0  0  0  0  0  0  0  0
   28.0103   -4.4686    0.0000 C   0  0  0  0  0  0  0  0  0  0  0  0
   29.4375   -6.0971    0.0000 C   0  0  0  0  0  0  0  0  0  0  0  0
   29.5261   -6.9095    0.0000 C   0  0  0  0  0  0  0  0  0  0  0  0
   30.3261   -7.0763    0.0000 C   0  0  0  0  0  0  0  0  0  0  0  0
   30.7320   -6.3669    0.0000 C   0  0  0  0  0  0  0  0  0  0  0  0
   30.1828   -5.7619    0.0000 S   0  0  0  0  0  0  0  0  0  0  0  0
   28.0059   -3.6515    0.0000 N   0  0  0  0  0  0  0  0  0  0  0  0
   28.7115   -3.2391    0.0000 C   0  0  0  0  0  0  0  0  0  0  0  0
   29.4167   -3.6473    0.0000 C   0  0  0  0  0  0  0  0  0  0  0  0
   30.1218   -3.2357    0.0000 C   0  0  0  0  0  0  0  0  0  0  0  0
   30.1179   -2.4176    0.0000 C   0  0  0  0  0  0  0  0  0  0  0  0
   29.4031   -2.0130    0.0000 C   0  0  0  0  0  0  0  0  0  0  0  0
   28.7009   -2.4270    0.0000 C   0  0  0  0  0  0  0  0  0  0  0  0
   30.8315   -3.6409    0.0000 O   0  0  0  0  0  0  0  0  0  0  0  0
   30.8229   -2.0043    0.0000 O   0  0  0  0  0  0  0  0  0  0  0  0
   31.5333   -2.4082    0.0000 C   0  0  0  0  0  0  0  0  0  0  0  0
   30.8354   -4.4580    0.0000 C   0  0  0  0  0  0  0  0  0  0  0  0
  1  2  2  0
  2  3  1  0
  3  6  2  0
  5  4  2  0
  4  1  1  0
  5  6  1  0
  6  7  1  0
  7  8  2  0
  8  9  1  0
  9 10  2  0
 10  5  1  0
 11 12  2  0
 12 13  1  0
 13 14  2  0
 14 15  1  0
 15 11  1  0
  8 11  1  0
 10 16  1  0
 16 17  1  0
 17 18  2  0
 18 19  1  0
 19 20  2  0
 20 21  1  0
 21 22  2  0
 22 17  1  0
 19 23  1  0
 20 24  1  0
 24 25  1  0
 23 26  1  0
M  END
>  <Curated_InChIs>  (58) 
InChI=1S/C20H17N3O2S/c1-24-16-10-9-13(12-17(16)25-2)21-19-14-6-3-4-7-15(14)22-20(23-19)18-8-5-11-26-18/h3-12H,1-2H3,(H,21,22,23)

>  <threshold>  (58) 
5

>  <pchembl>  (58) 
6.7

>  <Classification>  (58) 
1

>  <source>  (58) 
chembl_28

>  <SMILES>  (58) 
COc1ccc(Nc2nc(-c3cccs3)nc3ccccc23)cc1OC

>  <InChIKey>  (58) 
DXSMVRTYTCGGBA-UHFFFAOYSA-N

$$$$

     RDKit          2D

 25 27  0  0  0  0  0  0  0  0999 V2000
    3.7269   -9.1934    0.0000 C   0  0  0  0  0  0  0  0  0  0  0  0
    4.4368   -9.6020    0.0000 C   0  0  0  0  0  0  0  0  0  0  0  0
    5.1178   -9.1934    0.0000 C   0  0  0  0  0  0  0  0  0  0  0  0
    5.8318   -9.6020    0.0000 C   0  0  0  0  0  0  0  0  0  0  0  0
    5.8318  -10.4233    0.0000 C   0  0  0  0  0  0  0  0  0  0  0  0
    6.5417  -10.8319    0.0000 C   0  0  0  0  0  0  0  0  0  0  0  0
    7.2515  -10.4233    0.0000 C   0  0  0  0  0  0  0  0  0  0  0  0
    7.2515   -9.6020    0.0000 C   0  0  0  0  0  0  0  0  0  0  0  0
    6.5417   -9.1934    0.0000 C   0  0  0  0  0  0  0  0  0  0  0  0
    7.9614   -9.1934    0.0000 O   0  0  0  0  0  0  0  0  0  0  0  0
    8.6713   -9.6020    0.0000 C   0  0  0  0  0  0  0  0  0  0  0  0
    7.9614  -10.8319    0.0000 O   0  0  0  0  0  0  0  0  0  0  0  0
    8.6713  -10.4233    0.0000 C   0  0  0  0  0  0  0  0  0  0  0  0
    6.5417  -11.6532    0.0000 Cl  0  0  0  0  0  0  0  0  0  0  0  0
    3.7269   -8.3721    0.0000 O   0  0  0  0  0  0  0  0  0  0  0  0
    3.0170   -9.6020    0.0000 C   0  0  0  0  0  0  0  0  0  0  0  0
    3.0170  -10.4233    0.0000 C   0  0  0  0  0  0  0  0  0  0  0  0
    2.3030  -10.8319    0.0000 C   0  0  0  0  0  0  0  0  0  0  0  0
    2.3030  -11.6532    0.0000 C   0  0  0  0  0  0  0  0  0  0  0  0
    1.5931  -12.0618    0.0000 C   0  0  0  0  0  0  0  0  0  0  0  0
    0.8832  -11.6532    0.0000 C   0  0  0  0  0  0  0  0  0  0  0  0
    0.8832  -10.8319    0.0000 C   0  0  0  0  0  0  0  0  0  0  0  0
    1.5931  -10.4233    0.0000 C   0  0  0  0  0  0  0  0  0  0  0  0
    1.5931   -9.6020    0.0000 C   0  0  0  0  0  0  0  0  0  0  0  0
    2.3030   -9.1934    0.0000 C   0  0  0  0  0  0  0  0  0  0  0  0
  1  2  1  0
  2  3  2  0
  3  4  1  0
  4  5  2  0
  5  6  1  0
  6  7  2  0
  7  8  1  0
  8  9  2  0
  4  9  1  0
  8 10  1  0
 10 11  1  0
  7 12  1  0
 12 13  1  0
  6 14  1  0
  1 15  2  0
  1 16  1  0
 17 16  2  0
 17 18  1  0
 19 18  2  0
 20 19  1  0
 21 20  2  0
 22 21  1  0
 23 22  2  0
 23 18  1  0
 24 23  1  0
 25 24  2  0
 16 25  1  0
M  END
>  <Curated_InChIs>  (59) 
InChI=1S/C21H17ClO3/c1-24-20-12-14(11-18(22)21(20)25-2)7-10-19(23)17-9-8-15-5-3-4-6-16(15)13-17/h3-13H,1-2H3

>  <threshold>  (59) 
5

>  <pchembl>  (59) 
5.06

>  <Classification>  (59) 
1

>  <source>  (59) 
chembl_28

>  <SMILES>  (59) 
COc1cc(/C=C/C(=O)c2ccc3ccccc3c2)cc(Cl)c1OC

>  <InChIKey>  (59) 
FENLVBNHYJPVDC-JXMROGBWSA-N

$$$$

     RDKit          2D

 24 27  0  0  0  0  0  0  0  0999 V2000
    9.2601  -12.6169    0.0000 C   0  0  0  0  0  0  0  0  0  0  0  0
    9.2589  -13.4364    0.0000 C   0  0  0  0  0  0  0  0  0  0  0  0
    9.9670  -13.8454    0.0000 C   0  0  0  0  0  0  0  0  0  0  0  0
    9.9652  -12.2080    0.0000 C   0  0  0  0  0  0  0  0  0  0  0  0
   10.6738  -12.6133    0.0000 C   0  0  0  0  0  0  0  0  0  0  0  0
   10.6746  -13.4323    0.0000 C   0  0  0  0  0  0  0  0  0  0  0  0
   11.3831  -13.8394    0.0000 N   0  0  0  0  0  0  0  0  0  0  0  0
   12.0914  -13.4286    0.0000 C   0  0  0  0  0  0  0  0  0  0  0  0
   12.0866  -12.6064    0.0000 N   0  0  0  0  0  0  0  0  0  0  0  0
   11.3775  -12.2031    0.0000 C   0  0  0  0  0  0  0  0  0  0  0  0
   12.8048  -13.8316    0.0000 C   0  0  0  0  0  0  0  0  0  0  0  0
   12.8934  -14.6439    0.0000 C   0  0  0  0  0  0  0  0  0  0  0  0
   13.6934  -14.8107    0.0000 C   0  0  0  0  0  0  0  0  0  0  0  0
   14.0993  -14.1014    0.0000 C   0  0  0  0  0  0  0  0  0  0  0  0
   13.5500  -13.4963    0.0000 N   0  0  0  0  0  0  0  0  0  0  0  0
   11.3732  -11.3859    0.0000 N   0  0  0  0  0  0  0  0  0  0  0  0
   12.0787  -10.9735    0.0000 C   0  0  0  0  0  0  0  0  0  0  0  0
   12.7840  -11.3818    0.0000 C   0  0  0  0  0  0  0  0  0  0  0  0
   13.4891  -10.9701    0.0000 C   0  0  0  0  0  0  0  0  0  0  0  0
   13.4852  -10.1520    0.0000 C   0  0  0  0  0  0  0  0  0  0  0  0
   12.7703   -9.7474    0.0000 C   0  0  0  0  0  0  0  0  0  0  0  0
   12.0682  -10.1614    0.0000 C   0  0  0  0  0  0  0  0  0  0  0  0
   14.1981  -11.3741    0.0000 C   0  0  0  0  0  0  0  0  0  0  0  0
   14.9077  -11.7793    0.0000 N   0  0  0  0  0  0  0  0  0  0  0  0
  1  2  2  0
  2  3  1  0
  3  6  2  0
  5  4  2  0
  4  1  1  0
  5  6  1  0
  6  7  1  0
  7  8  2  0
  8  9  1  0
  9 10  2  0
 10  5  1  0
 11 12  2  0
 12 13  1  0
 13 14  2  0
 14 15  1  0
 15 11  1  0
  8 11  1  0
 10 16  1  0
 16 17  1  0
 17 18  2  0
 18 19  1  0
 19 20  2  0
 20 21  1  0
 21 22  2  0
 22 17  1  0
 23 24  3  0
 19 23  1  0
M  END
>  <Curated_InChIs>  (60) 
InChI=1S/C19H13N5/c20-12-13-5-3-6-14(11-13)22-18-15-7-1-2-8-16(15)23-19(24-18)17-9-4-10-21-17/h1-11,21H,(H,22,23,24)

>  <threshold>  (60) 
5

>  <pchembl>  (60) 
6.81, 8.1

>  <Classification>  (60) 
1

>  <source>  (60) 
chembl_28

>  <SMILES>  (60) 
N#Cc1cccc(Nc2nc(-c3ccc[nH]3)nc3ccccc23)c1

>  <InChIKey>  (60) 
FGHQGUOXZCKHKM-UHFFFAOYSA-N

$$$$

     RDKit          2D

 25 28  0  0  0  0  0  0  0  0999 V2000
   18.5133  -11.2219    0.0000 C   0  0  0  0  0  0  0  0  0  0  0  0
   18.5122  -12.0414    0.0000 C   0  0  0  0  0  0  0  0  0  0  0  0
   19.2202  -12.4504    0.0000 C   0  0  0  0  0  0  0  0  0  0  0  0
   19.2184  -10.8130    0.0000 C   0  0  0  0  0  0  0  0  0  0  0  0
   19.9271  -11.2183    0.0000 C   0  0  0  0  0  0  0  0  0  0  0  0
   19.9278  -12.0373    0.0000 C   0  0  0  0  0  0  0  0  0  0  0  0
   20.6364  -12.4444    0.0000 N   0  0  0  0  0  0  0  0  0  0  0  0
   21.3446  -12.0336    0.0000 C   0  0  0  0  0  0  0  0  0  0  0  0
   21.3399  -11.2114    0.0000 N   0  0  0  0  0  0  0  0  0  0  0  0
   20.6308  -10.8081    0.0000 C   0  0  0  0  0  0  0  0  0  0  0  0
   20.6264   -9.9909    0.0000 N   0  0  0  0  0  0  0  0  0  0  0  0
   21.3320   -9.5785    0.0000 C   0  0  0  0  0  0  0  0  0  0  0  0
   22.0373   -9.9868    0.0000 C   0  0  0  0  0  0  0  0  0  0  0  0
   22.7423   -9.5751    0.0000 C   0  0  0  0  0  0  0  0  0  0  0  0
   22.7384   -8.7570    0.0000 C   0  0  0  0  0  0  0  0  0  0  0  0
   22.0236   -8.3524    0.0000 C   0  0  0  0  0  0  0  0  0  0  0  0
   21.3215   -8.7664    0.0000 C   0  0  0  0  0  0  0  0  0  0  0  0
   22.0504  -12.4353    0.0000 C   0  0  0  0  0  0  0  0  0  0  0  0
   22.0522  -13.2536    0.0000 C   0  0  0  0  0  0  0  0  0  0  0  0
   22.7607  -13.6594    0.0000 C   0  0  0  0  0  0  0  0  0  0  0  0
   23.4677  -13.2480    0.0000 C   0  0  0  0  0  0  0  0  0  0  0  0
   23.4619  -12.4266    0.0000 C   0  0  0  0  0  0  0  0  0  0  0  0
   22.7529  -12.0245    0.0000 C   0  0  0  0  0  0  0  0  0  0  0  0
   23.4520   -9.9803    0.0000 C   0  0  0  0  0  0  0  0  0  0  0  0
   24.1567  -10.3882    0.0000 C   0  0  0  0  0  0  0  0  0  0  0  0
  1  2  2  0
  2  3  1  0
  3  6  2  0
  5  4  2  0
  4  1  1  0
  5  6  1  0
  6  7  1  0
  7  8  2  0
  8  9  1  0
  9 10  2  0
 10  5  1  0
 10 11  1  0
 11 12  1  0
 12 13  2  0
 13 14  1  0
 14 15  2  0
 15 16  1  0
 16 17  2  0
 17 12  1  0
 18 19  2  0
 19 20  1  0
 20 21  2  0
 21 22  1  0
 22 23  2  0
 23 18  1  0
  8 18  1  0
 14 24  1  0
 24 25  3  0
M  END
>  <Curated_InChIs>  (61) 
InChI=1S/C22H15N3/c1-2-16-9-8-12-18(15-16)23-22-19-13-6-7-14-20(19)24-21(25-22)17-10-4-3-5-11-17/h1,3-15H,(H,23,24,25)

>  <threshold>  (61) 
5

>  <pchembl>  (61) 
6.29, 6.17

>  <Classification>  (61) 
1

>  <source>  (61) 
chembl_28

>  <SMILES>  (61) 
C#Cc1cccc(Nc2nc(-c3ccccc3)nc3ccccc23)c1

>  <InChIKey>  (61) 
FLGLOQCIUMFVPN-UHFFFAOYSA-N

$$$$

     RDKit          2D

 25 27  0  0  0  0  0  0  0  0999 V2000
   19.7020   -7.1566    0.0000 C   0  0  0  0  0  0  0  0  0  0  0  0
   19.7008   -7.9761    0.0000 C   0  0  0  0  0  0  0  0  0  0  0  0
   20.4089   -8.3851    0.0000 C   0  0  0  0  0  0  0  0  0  0  0  0
   21.1185   -7.9756    0.0000 C   0  0  0  0  0  0  0  0  0  0  0  0
   21.1157   -7.1530    0.0000 C   0  0  0  0  0  0  0  0  0  0  0  0
   20.4071   -6.7477    0.0000 C   0  0  0  0  0  0  0  0  0  0  0  0
   21.8219   -6.7417    0.0000 C   0  0  0  0  0  0  0  0  0  0  0  0
   22.5311   -7.1476    0.0000 C   0  0  0  0  0  0  0  0  0  0  0  0
   21.8188   -5.9245    0.0000 O   0  0  0  0  0  0  0  0  0  0  0  0
   23.2373   -6.7364    0.0000 C   0  0  0  0  0  0  0  0  0  0  0  0
   23.9465   -7.1423    0.0000 C   0  0  0  0  0  0  0  0  0  0  0  0
   23.9465   -7.9584    0.0000 C   0  0  0  0  0  0  0  0  0  0  0  0
   24.6549   -8.3642    0.0000 C   0  0  0  0  0  0  0  0  0  0  0  0
   25.3621   -7.9529    0.0000 C   0  0  0  0  0  0  0  0  0  0  0  0
   25.3563   -7.1315    0.0000 C   0  0  0  0  0  0  0  0  0  0  0  0
   24.6474   -6.7294    0.0000 C   0  0  0  0  0  0  0  0  0  0  0  0
   18.9928   -8.3841    0.0000 O   0  0  0  0  0  0  0  0  0  0  0  0
   26.0718   -8.3579    0.0000 O   0  0  0  0  0  0  0  0  0  0  0  0
   26.0760   -9.1751    0.0000 C   0  0  0  0  0  0  0  0  0  0  0  0
   26.7858   -9.5801    0.0000 C   0  0  0  0  0  0  0  0  0  0  0  0
   26.7871  -10.3976    0.0000 C   0  0  0  0  0  0  0  0  0  0  0  0
   27.4961  -10.8025    0.0000 C   0  0  0  0  0  0  0  0  0  0  0  0
   28.2027  -10.3902    0.0000 C   0  0  0  0  0  0  0  0  0  0  0  0
   28.1959   -9.5688    0.0000 C   0  0  0  0  0  0  0  0  0  0  0  0
   27.4863   -9.1676    0.0000 C   0  0  0  0  0  0  0  0  0  0  0  0
  1  2  2  0
  2  3  1  0
  3  4  2  0
  4  5  1  0
  5  6  2  0
  6  1  1  0
  5  7  1  0
  7  8  1  0
  7  9  2  0
  8 10  2  0
 10 11  1  0
 11 12  2  0
 12 13  1  0
 13 14  2  0
 14 15  1  0
 15 16  2  0
 16 11  1  0
  2 17  1  0
 14 18  1  0
 18 19  1  0
 19 20  1  0
 20 21  2  0
 21 22  1  0
 22 23  2  0
 23 24  1  0
 24 25  2  0
 25 20  1  0
M  END
>  <Curated_InChIs>  (62) 
InChI=1S/C22H18O3/c23-20-11-9-19(10-12-20)22(24)15-8-17-6-13-21(14-7-17)25-16-18-4-2-1-3-5-18/h1-15,23H,16H2

>  <threshold>  (62) 
5

>  <pchembl>  (62) 
5.04

>  <Classification>  (62) 
1

>  <source>  (62) 
chembl_28

>  <SMILES>  (62) 
O=C(/C=C/c1ccc(OCc2ccccc2)cc1)c1ccc(O)cc1

>  <InChIKey>  (62) 
FNHVYURUALTEKK-OVCLIPMQSA-N

$$$$

     RDKit          2D

 31 35  0  0  0  0  0  0  0  0999 V2000
   13.7629  -19.0636    0.0000 C   0  0  0  0  0  0  0  0  0  0  0  0
   13.7617  -19.8832    0.0000 C   0  0  0  0  0  0  0  0  0  0  0  0
   14.4698  -20.2921    0.0000 C   0  0  0  0  0  0  0  0  0  0  0  0
   14.4680  -18.6548    0.0000 C   0  0  0  0  0  0  0  0  0  0  0  0
   15.1766  -19.0600    0.0000 C   0  0  0  0  0  0  0  0  0  0  0  0
   15.1769  -19.8832    0.0000 C   0  0  0  0  0  0  0  0  0  0  0  0
   15.9598  -20.1374    0.0000 N   0  0  0  0  0  0  0  0  0  0  0  0
   15.9594  -18.8055    0.0000 C   0  0  0  0  0  0  0  0  0  0  0  0
   16.4436  -19.4726    0.0000 C   0  0  0  0  0  0  0  0  0  0  0  0
   17.2589  -19.3873    0.0000 C   0  0  0  0  0  0  0  0  0  0  0  0
   17.5964  -18.6359    0.0000 N   0  0  0  0  0  0  0  0  0  0  0  0
   17.1122  -17.9688    0.0000 C   0  0  0  0  0  0  0  0  0  0  0  0
   16.2906  -18.0531    0.0000 C   0  0  0  0  0  0  0  0  0  0  0  0
   18.4093  -18.5520    0.0000 C   0  0  0  0  0  0  0  0  0  0  0  0
   18.8884  -19.2140    0.0000 O   0  0  0  0  0  0  0  0  0  0  0  0
   18.7430  -17.8061    0.0000 C   0  0  0  0  0  0  0  0  0  0  0  0
   19.5562  -17.7263    0.0000 C   0  0  0  0  0  0  0  0  0  0  0  0
   19.8899  -16.9812    0.0000 C   0  0  0  0  0  0  0  0  0  0  0  0
   19.4107  -16.3182    0.0000 C   0  0  0  0  0  0  0  0  0  0  0  0
   18.5939  -16.4051    0.0000 C   0  0  0  0  0  0  0  0  0  0  0  0
   18.2638  -17.1504    0.0000 C   0  0  0  0  0  0  0  0  0  0  0  0
   17.7389  -20.0460    0.0000 C   0  0  0  0  0  0  0  0  0  0  0  0
   17.4034  -20.7923    0.0000 C   0  0  0  0  0  0  0  0  0  0  0  0
   17.8818  -21.4540    0.0000 C   0  0  0  0  0  0  0  0  0  0  0  0
   18.6956  -21.3704    0.0000 C   0  0  0  0  0  0  0  0  0  0  0  0
   19.0287  -20.6196    0.0000 C   0  0  0  0  0  0  0  0  0  0  0  0
   18.5483  -19.9611    0.0000 C   0  0  0  0  0  0  0  0  0  0  0  0
   17.5476  -22.1997    0.0000 Cl  0  0  0  0  0  0  0  0  0  0  0  0
   19.1755  -22.0318    0.0000 Cl  0  0  0  0  0  0  0  0  0  0  0  0
   20.7029  -16.8977    0.0000 O   0  0  0  0  0  0  0  0  0  0  0  0
   21.1816  -17.5599    0.0000 C   0  0  0  0  0  0  0  0  0  0  0  0
  1  2  2  0
  2  3  1  0
  3  6  2  0
  5  4  2  0
  4  1  1  0
  5  6  1  0
  6  7  1  0
  7  9  1  0
  8  5  1  0
  8  9  2  0
  8 13  1  0
  9 10  1  0
 10 11  1  0
 11 12  1  0
 12 13  1  0
 11 14  1  0
 14 15  2  0
 14 16  1  0
 16 17  2  0
 17 18  1  0
 18 19  2  0
 19 20  1  0
 20 21  2  0
 21 16  1  0
 22 23  2  0
 23 24  1  0
 24 25  2  0
 25 26  1  0
 26 27  2  0
 27 22  1  0
 10 22  1  0
 24 28  1  0
 25 29  1  0
 18 30  1  0
 30 31  1  0
M  END
>  <Curated_InChIs>  (63) 
InChI=1S/C25H20Cl2N2O2/c1-31-17-6-4-5-16(13-17)25(30)29-12-11-19-18-7-2-3-8-22(18)28-23(19)24(29)15-9-10-20(26)21(27)14-15/h2-10,13-14,24,28H,11-12H2,1H3

>  <threshold>  (63) 
5

>  <pchembl>  (63) 
6.62, 7.42, 6.69, 6.58

>  <Classification>  (63) 
1

>  <source>  (63) 
chembl_28

>  <SMILES>  (63) 
COc1cccc(C(=O)N2CCc3c([nH]c4ccccc34)C2c2ccc(Cl)c(Cl)c2)c1

>  <InChIKey>  (63) 
FNIAXWJVSPYSER-UHFFFAOYSA-N

$$$$

     RDKit          2D

 30 32  0  0  0  0  0  0  0  0999 V2000
   30.6158  -28.7461    0.0000 C   0  0  0  0  0  0  0  0  0  0  0  0
   30.6199  -29.5716    0.0000 C   0  0  0  0  0  0  0  0  0  0  0  0
   31.3257  -28.3376    0.0000 C   0  0  0  0  0  0  0  0  0  0  0  0
   32.0314  -28.7461    0.0000 C   0  0  0  0  0  0  0  0  0  0  0  0
   32.0314  -29.5716    0.0000 C   0  0  0  0  0  0  0  0  0  0  0  0
   31.3257  -29.9802    0.0000 C   0  0  0  0  0  0  0  0  0  0  0  0
   32.7394  -29.9798    0.0000 N   0  0  0  0  0  0  0  0  0  0  0  0
   33.4468  -29.5707    0.0000 C   0  0  0  0  0  0  0  0  0  0  0  0
   34.1548  -29.9789    0.0000 C   0  0  0  0  0  0  0  0  0  0  0  0
   33.4463  -28.7536    0.0000 O   0  0  0  0  0  0  0  0  0  0  0  0
   34.8623  -29.5699    0.0000 O   0  0  0  0  0  0  0  0  0  0  0  0
   35.5702  -29.9781    0.0000 C   0  0  0  0  0  0  0  0  0  0  0  0
   35.5662  -30.7943    0.0000 C   0  0  0  0  0  0  0  0  0  0  0  0
   36.2733  -31.2024    0.0000 C   0  0  0  0  0  0  0  0  0  0  0  0
   36.9818  -30.7933    0.0000 C   0  0  0  0  0  0  0  0  0  0  0  0
   36.9786  -29.9719    0.0000 C   0  0  0  0  0  0  0  0  0  0  0  0
   36.2709  -29.5675    0.0000 C   0  0  0  0  0  0  0  0  0  0  0  0
   37.6903  -31.2006    0.0000 C   0  0  0  0  0  0  0  0  0  0  0  0
   37.6918  -32.0178    0.0000 O   0  0  0  0  0  0  0  0  0  0  0  0
   38.3972  -30.7906    0.0000 C   0  0  0  0  0  0  0  0  0  0  0  0
   39.1057  -31.1978    0.0000 C   0  0  0  0  0  0  0  0  0  0  0  0
   39.8126  -30.7879    0.0000 C   0  0  0  0  0  0  0  0  0  0  0  0
   29.9073  -28.3389    0.0000 O   0  0  0  0  0  0  0  0  0  0  0  0
   29.9130  -29.9815    0.0000 O   0  0  0  0  0  0  0  0  0  0  0  0
   29.9058  -27.5217    0.0000 C   0  0  0  0  0  0  0  0  0  0  0  0
   29.2045  -29.5743    0.0000 C   0  0  0  0  0  0  0  0  0  0  0  0
   40.5597  -31.1153    0.0000 O   0  0  0  0  0  0  0  0  0  0  0  0
   41.1053  -30.5070    0.0000 C   0  0  0  0  0  0  0  0  0  0  0  0
   40.6953  -29.8000    0.0000 C   0  0  0  0  0  0  0  0  0  0  0  0
   39.8964  -29.9716    0.0000 C   0  0  0  0  0  0  0  0  0  0  0  0
  2  1  2  0
  3  1  1  0
  4  3  2  0
  5  4  1  0
  6  2  1  0
  6  5  2  0
  5  7  1  0
  7  8  1  0
  8  9  1  0
  8 10  2  0
  9 11  1  0
 11 12  1  0
 12 13  2  0
 13 14  1  0
 14 15  2  0
 15 16  1  0
 16 17  2  0
 17 12  1  0
 15 18  1  0
 18 19  2  0
 18 20  1  0
 20 21  2  0
 21 22  1  0
  1 23  1  0
  2 24  1  0
 23 25  1  0
 24 26  1  0
 22 27  1  0
 27 28  1  0
 28 29  2  0
 29 30  1  0
 30 22  2  0
M  END
>  <Curated_InChIs>  (64) 
InChI=1S/C23H21NO6/c1-27-21-12-7-17(14-22(21)28-2)24-23(26)15-30-19-8-5-16(6-9-19)20(25)11-10-18-4-3-13-29-18/h3-14H,15H2,1-2H3,(H,24,26)

>  <threshold>  (64) 
5

>  <pchembl>  (64) 
5.27

>  <Classification>  (64) 
1

>  <source>  (64) 
chembl_28

>  <SMILES>  (64) 
COc1ccc(NC(=O)COc2ccc(C(=O)/C=C/c3ccco3)cc2)cc1OC

>  <InChIKey>  (64) 
GHEABOFXCMRBJT-ZHACJKMWSA-N

$$$$

     RDKit          2D

 24 27  0  0  0  0  0  0  0  0999 V2000
   18.3647   -5.2209    0.0000 C   0  0  0  0  0  0  0  0  0  0  0  0
   18.3636   -6.0404    0.0000 C   0  0  0  0  0  0  0  0  0  0  0  0
   19.0716   -6.4494    0.0000 C   0  0  0  0  0  0  0  0  0  0  0  0
   19.0699   -4.8120    0.0000 C   0  0  0  0  0  0  0  0  0  0  0  0
   19.7785   -5.2173    0.0000 C   0  0  0  0  0  0  0  0  0  0  0  0
   19.7792   -6.0363    0.0000 C   0  0  0  0  0  0  0  0  0  0  0  0
   20.4878   -6.4434    0.0000 N   0  0  0  0  0  0  0  0  0  0  0  0
   21.1960   -6.0326    0.0000 C   0  0  0  0  0  0  0  0  0  0  0  0
   21.1913   -5.2104    0.0000 N   0  0  0  0  0  0  0  0  0  0  0  0
   20.4822   -4.8071    0.0000 C   0  0  0  0  0  0  0  0  0  0  0  0
   21.9095   -6.4356    0.0000 C   0  0  0  0  0  0  0  0  0  0  0  0
   21.9981   -7.2479    0.0000 C   0  0  0  0  0  0  0  0  0  0  0  0
   22.7981   -7.4147    0.0000 C   0  0  0  0  0  0  0  0  0  0  0  0
   23.2039   -6.7054    0.0000 C   0  0  0  0  0  0  0  0  0  0  0  0
   22.6547   -6.1003    0.0000 S   0  0  0  0  0  0  0  0  0  0  0  0
   20.4779   -3.9899    0.0000 N   0  0  0  0  0  0  0  0  0  0  0  0
   21.1834   -3.5776    0.0000 C   0  0  0  0  0  0  0  0  0  0  0  0
   21.8887   -3.9858    0.0000 C   0  0  0  0  0  0  0  0  0  0  0  0
   22.5937   -3.5741    0.0000 C   0  0  0  0  0  0  0  0  0  0  0  0
   22.5898   -2.7561    0.0000 C   0  0  0  0  0  0  0  0  0  0  0  0
   21.8750   -2.3514    0.0000 C   0  0  0  0  0  0  0  0  0  0  0  0
   21.1729   -2.7654    0.0000 C   0  0  0  0  0  0  0  0  0  0  0  0
   23.3027   -3.9781    0.0000 C   0  0  0  0  0  0  0  0  0  0  0  0
   24.0124   -4.3833    0.0000 N   0  0  0  0  0  0  0  0  0  0  0  0
  1  2  2  0
  2  3  1  0
  3  6  2  0
  5  4  2  0
  4  1  1  0
  5  6  1  0
  6  7  1  0
  7  8  2  0
  8  9  1  0
  9 10  2  0
 10  5  1  0
 11 12  2  0
 12 13  1  0
 13 14  2  0
 14 15  1  0
 15 11  1  0
  8 11  1  0
 10 16  1  0
 16 17  1  0
 17 18  2  0
 18 19  1  0
 19 20  2  0
 20 21  1  0
 21 22  2  0
 22 17  1  0
 23 24  3  0
 19 23  1  0
M  END
>  <Curated_InChIs>  (65) 
InChI=1S/C19H12N4S/c20-12-13-5-3-6-14(11-13)21-18-15-7-1-2-8-16(15)22-19(23-18)17-9-4-10-24-17/h1-11H,(H,21,22,23)

>  <threshold>  (65) 
5

>  <pchembl>  (65) 
6.75, 7.34

>  <Classification>  (65) 
1

>  <source>  (65) 
chembl_28

>  <SMILES>  (65) 
N#Cc1cccc(Nc2nc(-c3cccs3)nc3ccccc23)c1

>  <InChIKey>  (65) 
GKIWTAJUERGDPI-UHFFFAOYSA-N

$$$$

     RDKit          2D

 23 24  0  0  0  0  0  0  0  0999 V2000
    1.8723   -3.0747    0.0000 C   0  0  0  0  0  0  0  0  0  0  0  0
    1.8712   -3.8943    0.0000 C   0  0  0  0  0  0  0  0  0  0  0  0
    2.5792   -4.3032    0.0000 C   0  0  0  0  0  0  0  0  0  0  0  0
    3.2889   -3.8938    0.0000 C   0  0  0  0  0  0  0  0  0  0  0  0
    3.2861   -3.0711    0.0000 C   0  0  0  0  0  0  0  0  0  0  0  0
    2.5775   -2.6659    0.0000 C   0  0  0  0  0  0  0  0  0  0  0  0
    3.9922   -2.6599    0.0000 C   0  0  0  0  0  0  0  0  0  0  0  0
    4.7015   -3.0658    0.0000 C   0  0  0  0  0  0  0  0  0  0  0  0
    3.9892   -1.8427    0.0000 O   0  0  0  0  0  0  0  0  0  0  0  0
    5.4076   -2.6546    0.0000 C   0  0  0  0  0  0  0  0  0  0  0  0
    6.1169   -3.0605    0.0000 C   0  0  0  0  0  0  0  0  0  0  0  0
    6.1169   -3.8765    0.0000 C   0  0  0  0  0  0  0  0  0  0  0  0
    6.8253   -4.2824    0.0000 C   0  0  0  0  0  0  0  0  0  0  0  0
    7.5324   -3.8711    0.0000 C   0  0  0  0  0  0  0  0  0  0  0  0
    7.5267   -3.0497    0.0000 C   0  0  0  0  0  0  0  0  0  0  0  0
    6.8177   -2.6475    0.0000 C   0  0  0  0  0  0  0  0  0  0  0  0
    1.1645   -2.6663    0.0000 O   0  0  0  0  0  0  0  0  0  0  0  0
    8.2314   -2.6359    0.0000 O   0  0  0  0  0  0  0  0  0  0  0  0
    8.2422   -4.2761    0.0000 O   0  0  0  0  0  0  0  0  0  0  0  0
    6.8280   -5.0996    0.0000 O   0  0  0  0  0  0  0  0  0  0  0  0
    6.1216   -5.5105    0.0000 C   0  0  0  0  0  0  0  0  0  0  0  0
    8.2464   -5.0932    0.0000 C   0  0  0  0  0  0  0  0  0  0  0  0
    8.9421   -3.0393    0.0000 C   0  0  0  0  0  0  0  0  0  0  0  0
  1  2  2  0
  2  3  1  0
  3  4  2  0
  4  5  1  0
  5  6  2  0
  6  1  1  0
  5  7  1  0
  7  8  1  0
  7  9  2  0
  8 10  2  0
 10 11  1  0
 11 12  2  0
 12 13  1  0
 13 14  2  0
 14 15  1  0
 15 16  2  0
 16 11  1  0
  1 17  1  0
 15 18  1  0
 14 19  1  0
 13 20  1  0
 20 21  1  0
 19 22  1  0
 18 23  1  0
M  END
>  <Curated_InChIs>  (66) 
InChI=1S/C18H18O5/c1-21-16-9-12(10-17(22-2)18(16)23-3)7-8-15(20)13-5-4-6-14(19)11-13/h4-11,19H,1-3H3

>  <threshold>  (66) 
5

>  <pchembl>  (66) 
5.37

>  <Classification>  (66) 
1

>  <source>  (66) 
chembl_28

>  <SMILES>  (66) 
COc1cc(/C=C/C(=O)c2cccc(O)c2)cc(OC)c1OC

>  <InChIKey>  (66) 
GXDVUKSFUWXQIV-BQYQJAHWSA-N

$$$$

     RDKit          2D

 25 28  0  0  0  0  0  0  0  0999 V2000
   20.4573  -26.4184    0.0000 C   0  0  0  0  0  0  0  0  0  0  0  0
   20.4561  -27.2379    0.0000 C   0  0  0  0  0  0  0  0  0  0  0  0
   21.1642  -27.6469    0.0000 C   0  0  0  0  0  0  0  0  0  0  0  0
   21.1624  -26.0095    0.0000 C   0  0  0  0  0  0  0  0  0  0  0  0
   21.8710  -26.4148    0.0000 C   0  0  0  0  0  0  0  0  0  0  0  0
   21.8717  -27.2338    0.0000 C   0  0  0  0  0  0  0  0  0  0  0  0
   22.5803  -27.6408    0.0000 N   0  0  0  0  0  0  0  0  0  0  0  0
   23.2885  -27.2300    0.0000 C   0  0  0  0  0  0  0  0  0  0  0  0
   23.2838  -26.4079    0.0000 N   0  0  0  0  0  0  0  0  0  0  0  0
   22.5747  -26.0045    0.0000 C   0  0  0  0  0  0  0  0  0  0  0  0
   24.0020  -27.6330    0.0000 C   0  0  0  0  0  0  0  0  0  0  0  0
   22.5704  -25.1873    0.0000 S   0  0  0  0  0  0  0  0  0  0  0  0
   23.2759  -24.7750    0.0000 C   0  0  0  0  0  0  0  0  0  0  0  0
   23.9812  -25.1832    0.0000 C   0  0  0  0  0  0  0  0  0  0  0  0
   24.6862  -24.7716    0.0000 C   0  0  0  0  0  0  0  0  0  0  0  0
   24.6823  -23.9535    0.0000 C   0  0  0  0  0  0  0  0  0  0  0  0
   23.9675  -23.5489    0.0000 C   0  0  0  0  0  0  0  0  0  0  0  0
   23.2654  -23.9628    0.0000 C   0  0  0  0  0  0  0  0  0  0  0  0
   24.0048  -28.4523    0.0000 C   0  0  0  0  0  0  0  0  0  0  0  0
   24.7174  -28.8552    0.0000 C   0  0  0  0  0  0  0  0  0  0  0  0
   25.4241  -28.4388    0.0000 C   0  0  0  0  0  0  0  0  0  0  0  0
   25.4137  -27.6152    0.0000 C   0  0  0  0  0  0  0  0  0  0  0  0
   24.7006  -27.2160    0.0000 C   0  0  0  0  0  0  0  0  0  0  0  0
   25.3959  -25.1767    0.0000 O   0  0  0  0  0  0  0  0  0  0  0  0
   25.3998  -25.9939    0.0000 C   0  0  0  0  0  0  0  0  0  0  0  0
  1  2  2  0
  2  3  1  0
  3  6  2  0
  5  4  2  0
  4  1  1  0
  5  6  1  0
  6  7  1  0
  7  8  2  0
  8  9  1  0
  9 10  2  0
 10  5  1  0
  8 11  1  0
 10 12  1  0
 12 13  1  0
 13 14  2  0
 14 15  1  0
 15 16  2  0
 16 17  1  0
 17 18  2  0
 18 13  1  0
 11 19  2  0
 19 20  1  0
 20 21  2  0
 21 22  1  0
 22 23  2  0
 23 11  1  0
 15 24  1  0
 24 25  1  0
M  END
>  <Curated_InChIs>  (67) 
InChI=1S/C21H16N2OS/c1-24-16-10-7-11-17(14-16)25-21-18-12-5-6-13-19(18)22-20(23-21)15-8-3-2-4-9-15/h2-14H,1H3

>  <threshold>  (67) 
5

>  <pchembl>  (67) 
5.13

>  <Classification>  (67) 
1

>  <source>  (67) 
chembl_28

>  <SMILES>  (67) 
COc1cccc(Sc2nc(-c3ccccc3)nc3ccccc23)c1

>  <InChIKey>  (67) 
GYZSPCGVILMYQS-UHFFFAOYSA-N

$$$$

     RDKit          2D

 30 34  0  0  0  0  0  0  0  0999 V2000
   23.0244  -10.8670    0.0000 C   0  0  0  0  0  0  0  0  0  0  0  0
   23.0232  -11.6865    0.0000 C   0  0  0  0  0  0  0  0  0  0  0  0
   23.7313  -12.0955    0.0000 C   0  0  0  0  0  0  0  0  0  0  0  0
   23.7295  -10.4581    0.0000 C   0  0  0  0  0  0  0  0  0  0  0  0
   24.4381  -10.8634    0.0000 C   0  0  0  0  0  0  0  0  0  0  0  0
   24.4384  -11.6865    0.0000 C   0  0  0  0  0  0  0  0  0  0  0  0
   25.2213  -11.9407    0.0000 N   0  0  0  0  0  0  0  0  0  0  0  0
   25.2209  -10.6088    0.0000 C   0  0  0  0  0  0  0  0  0  0  0  0
   25.7051  -11.2759    0.0000 C   0  0  0  0  0  0  0  0  0  0  0  0
   26.5204  -11.1906    0.0000 C   0  0  0  0  0  0  0  0  0  0  0  0
   26.8579  -10.4392    0.0000 N   0  0  0  0  0  0  0  0  0  0  0  0
   26.3737   -9.7721    0.0000 C   0  0  0  0  0  0  0  0  0  0  0  0
   25.5521   -9.8564    0.0000 C   0  0  0  0  0  0  0  0  0  0  0  0
   27.6708  -10.3553    0.0000 C   0  0  0  0  0  0  0  0  0  0  0  0
   28.1499  -11.0174    0.0000 O   0  0  0  0  0  0  0  0  0  0  0  0
   28.0045   -9.6094    0.0000 C   0  0  0  0  0  0  0  0  0  0  0  0
   28.8177   -9.5296    0.0000 C   0  0  0  0  0  0  0  0  0  0  0  0
   29.1514   -8.7845    0.0000 C   0  0  0  0  0  0  0  0  0  0  0  0
   28.6722   -8.1215    0.0000 C   0  0  0  0  0  0  0  0  0  0  0  0
   27.8554   -8.2085    0.0000 C   0  0  0  0  0  0  0  0  0  0  0  0
   27.5253   -8.9537    0.0000 C   0  0  0  0  0  0  0  0  0  0  0  0
   27.0004  -11.8493    0.0000 C   0  0  0  0  0  0  0  0  0  0  0  0
   26.6649  -12.5957    0.0000 C   0  0  0  0  0  0  0  0  0  0  0  0
   27.1433  -13.2573    0.0000 C   0  0  0  0  0  0  0  0  0  0  0  0
   27.9571  -13.1737    0.0000 C   0  0  0  0  0  0  0  0  0  0  0  0
   28.2902  -12.4229    0.0000 C   0  0  0  0  0  0  0  0  0  0  0  0
   27.8098  -11.7644    0.0000 C   0  0  0  0  0  0  0  0  0  0  0  0
   29.0050   -7.3751    0.0000 Cl  0  0  0  0  0  0  0  0  0  0  0  0
   26.8091  -14.0030    0.0000 Cl  0  0  0  0  0  0  0  0  0  0  0  0
   28.4370  -13.8351    0.0000 Cl  0  0  0  0  0  0  0  0  0  0  0  0
  1  2  2  0
  2  3  1  0
  3  6  2  0
  5  4  2  0
  4  1  1  0
  5  6  1  0
  6  7  1  0
  7  9  1  0
  8  5  1  0
  8  9  2  0
  8 13  1  0
  9 10  1  0
 10 11  1  0
 11 12  1  0
 12 13  1  0
 11 14  1  0
 14 15  2  0
 14 16  1  0
 16 17  2  0
 17 18  1  0
 18 19  2  0
 19 20  1  0
 20 21  2  0
 21 16  1  0
 22 23  2  0
 23 24  1  0
 24 25  2  0
 25 26  1  0
 26 27  2  0
 27 22  1  0
 10 22  1  0
 19 28  1  0
 24 29  1  0
 25 30  1  0
M  END
>  <Curated_InChIs>  (68) 
InChI=1S/C24H17Cl3N2O/c25-16-8-5-14(6-9-16)24(30)29-12-11-18-17-3-1-2-4-21(17)28-22(18)23(29)15-7-10-19(26)20(27)13-15/h1-10,13,23,28H,11-12H2

>  <threshold>  (68) 
5

>  <pchembl>  (68) 
5.99

>  <Classification>  (68) 
1

>  <source>  (68) 
chembl_28

>  <SMILES>  (68) 
O=C(c1ccc(Cl)cc1)N1CCc2c([nH]c3ccccc23)C1c1ccc(Cl)c(Cl)c1

>  <InChIKey>  (68) 
GZEVJOGRLLFEJX-UHFFFAOYSA-N

$$$$

     RDKit          2D

 29 33  0  0  0  0  0  0  0  0999 V2000
    2.7886  -14.1110    0.0000 C   0  0  0  0  0  0  0  0  0  0  0  0
    2.7874  -14.9305    0.0000 C   0  0  0  0  0  0  0  0  0  0  0  0
    3.4955  -15.3395    0.0000 C   0  0  0  0  0  0  0  0  0  0  0  0
    3.4937  -13.7021    0.0000 C   0  0  0  0  0  0  0  0  0  0  0  0
    4.2023  -14.1074    0.0000 C   0  0  0  0  0  0  0  0  0  0  0  0
    4.2026  -14.9305    0.0000 C   0  0  0  0  0  0  0  0  0  0  0  0
    4.9855  -15.1847    0.0000 N   0  0  0  0  0  0  0  0  0  0  0  0
    4.9851  -13.8528    0.0000 C   0  0  0  0  0  0  0  0  0  0  0  0
    5.4693  -14.5199    0.0000 C   0  0  0  0  0  0  0  0  0  0  0  0
    6.2846  -14.4346    0.0000 C   0  0  0  0  0  0  0  0  0  0  0  0
    6.6221  -13.6832    0.0000 N   0  0  0  0  0  0  0  0  0  0  0  0
    6.1379  -13.0161    0.0000 C   0  0  0  0  0  0  0  0  0  0  0  0
    5.3162  -13.1004    0.0000 C   0  0  0  0  0  0  0  0  0  0  0  0
    7.4350  -13.5994    0.0000 C   0  0  0  0  0  0  0  0  0  0  0  0
    7.9141  -14.2614    0.0000 O   0  0  0  0  0  0  0  0  0  0  0  0
    7.7687  -12.8534    0.0000 C   0  0  0  0  0  0  0  0  0  0  0  0
    8.5819  -12.7736    0.0000 C   0  0  0  0  0  0  0  0  0  0  0  0
    8.9156  -12.0285    0.0000 C   0  0  0  0  0  0  0  0  0  0  0  0
    8.4364  -11.3655    0.0000 C   0  0  0  0  0  0  0  0  0  0  0  0
    7.6196  -11.4525    0.0000 C   0  0  0  0  0  0  0  0  0  0  0  0
    7.2895  -12.1977    0.0000 C   0  0  0  0  0  0  0  0  0  0  0  0
    6.7646  -15.0933    0.0000 C   0  0  0  0  0  0  0  0  0  0  0  0
    6.4291  -15.8397    0.0000 C   0  0  0  0  0  0  0  0  0  0  0  0
    6.9075  -16.5013    0.0000 C   0  0  0  0  0  0  0  0  0  0  0  0
    7.7213  -16.4177    0.0000 C   0  0  0  0  0  0  0  0  0  0  0  0
    8.0544  -15.6669    0.0000 C   0  0  0  0  0  0  0  0  0  0  0  0
    7.5740  -15.0084    0.0000 C   0  0  0  0  0  0  0  0  0  0  0  0
    8.8669  -15.5801    0.0000 O   0  0  0  0  0  0  0  0  0  0  0  0
    9.3484  -16.2404    0.0000 C   0  0  0  0  0  0  0  0  0  0  0  0
  1  2  2  0
  2  3  1  0
  3  6  2  0
  5  4  2  0
  4  1  1  0
  5  6  1  0
  6  7  1  0
  7  9  1  0
  8  5  1  0
  8  9  2  0
  8 13  1  0
  9 10  1  0
 10 11  1  0
 11 12  1  0
 12 13  1  0
 11 14  1  0
 14 15  2  0
 14 16  1  0
 16 17  2  0
 17 18  1  0
 18 19  2  0
 19 20  1  0
 20 21  2  0
 21 16  1  0
 22 23  2  0
 23 24  1  0
 24 25  2  0
 25 26  1  0
 26 27  2  0
 27 22  1  0
 10 22  1  0
 26 28  1  0
 28 29  1  0
M  END
>  <Curated_InChIs>  (69) 
InChI=1S/C25H22N2O2/c1-29-19-11-7-10-18(16-19)24-23-21(20-12-5-6-13-22(20)26-23)14-15-27(24)25(28)17-8-3-2-4-9-17/h2-13,16,24,26H,14-15H2,1H3

>  <threshold>  (69) 
5

>  <pchembl>  (69) 
5.72

>  <Classification>  (69) 
1

>  <source>  (69) 
chembl_28

>  <SMILES>  (69) 
COc1cccc(C2c3[nH]c4ccccc4c3CCN2C(=O)c2ccccc2)c1

>  <InChIKey>  (69) 
HBFNBIUDWKZWTH-UHFFFAOYSA-N

$$$$

     RDKit          2D

 24 27  0  0  0  0  0  0  0  0999 V2000
   29.1286  -19.1874    0.0000 C   0  0  0  0  0  0  0  0  0  0  0  0
   29.1274  -20.0070    0.0000 C   0  0  0  0  0  0  0  0  0  0  0  0
   29.8355  -20.4159    0.0000 C   0  0  0  0  0  0  0  0  0  0  0  0
   29.8337  -18.7786    0.0000 C   0  0  0  0  0  0  0  0  0  0  0  0
   30.5423  -19.1838    0.0000 C   0  0  0  0  0  0  0  0  0  0  0  0
   30.5430  -20.0029    0.0000 C   0  0  0  0  0  0  0  0  0  0  0  0
   31.2516  -20.4099    0.0000 N   0  0  0  0  0  0  0  0  0  0  0  0
   31.9598  -19.9991    0.0000 C   0  0  0  0  0  0  0  0  0  0  0  0
   31.9551  -19.1770    0.0000 N   0  0  0  0  0  0  0  0  0  0  0  0
   31.2460  -18.7736    0.0000 C   0  0  0  0  0  0  0  0  0  0  0  0
   32.6733  -20.4021    0.0000 C   0  0  0  0  0  0  0  0  0  0  0  0
   31.2417  -17.9564    0.0000 O   0  0  0  0  0  0  0  0  0  0  0  0
   31.9472  -17.5441    0.0000 C   0  0  0  0  0  0  0  0  0  0  0  0
   32.6525  -17.9523    0.0000 C   0  0  0  0  0  0  0  0  0  0  0  0
   33.3575  -17.5407    0.0000 C   0  0  0  0  0  0  0  0  0  0  0  0
   33.3536  -16.7226    0.0000 C   0  0  0  0  0  0  0  0  0  0  0  0
   32.6388  -16.3179    0.0000 C   0  0  0  0  0  0  0  0  0  0  0  0
   31.9367  -16.7319    0.0000 C   0  0  0  0  0  0  0  0  0  0  0  0
   32.6761  -21.2214    0.0000 C   0  0  0  0  0  0  0  0  0  0  0  0
   33.3887  -21.6243    0.0000 C   0  0  0  0  0  0  0  0  0  0  0  0
   34.0954  -21.2079    0.0000 C   0  0  0  0  0  0  0  0  0  0  0  0
   34.0850  -20.3843    0.0000 C   0  0  0  0  0  0  0  0  0  0  0  0
   33.3719  -19.9851    0.0000 C   0  0  0  0  0  0  0  0  0  0  0  0
   34.0586  -16.3093    0.0000 Br  0  0  0  0  0  0  0  0  0  0  0  0
  1  2  2  0
  2  3  1  0
  3  6  2  0
  5  4  2  0
  4  1  1  0
  5  6  1  0
  6  7  1  0
  7  8  2  0
  8  9  1  0
  9 10  2  0
 10  5  1  0
  8 11  1  0
 10 12  1  0
 12 13  1  0
 13 14  2  0
 14 15  1  0
 15 16  2  0
 16 17  1  0
 17 18  2  0
 18 13  1  0
 11 19  2  0
 19 20  1  0
 20 21  2  0
 21 22  1  0
 22 23  2  0
 23 11  1  0
 16 24  1  0
M  END
>  <Curated_InChIs>  (70) 
InChI=1S/C20H13BrN2O/c21-15-10-12-16(13-11-15)24-20-17-8-4-5-9-18(17)22-19(23-20)14-6-2-1-3-7-14/h1-13H

>  <threshold>  (70) 
5

>  <pchembl>  (70) 
5.14

>  <Classification>  (70) 
1

>  <source>  (70) 
chembl_28

>  <SMILES>  (70) 
Brc1ccc(Oc2nc(-c3ccccc3)nc3ccccc23)cc1

>  <InChIKey>  (70) 
HJOUDBMAJAOYQJ-UHFFFAOYSA-N

$$$$

     RDKit          2D

 31 35  0  0  0  0  0  0  0  0999 V2000
    1.2656   -5.0558    0.0000 C   0  0  0  0  0  0  0  0  0  0  0  0
    1.2645   -5.8754    0.0000 C   0  0  0  0  0  0  0  0  0  0  0  0
    1.9725   -6.2843    0.0000 C   0  0  0  0  0  0  0  0  0  0  0  0
    1.9708   -4.6470    0.0000 C   0  0  0  0  0  0  0  0  0  0  0  0
    2.6794   -5.0522    0.0000 C   0  0  0  0  0  0  0  0  0  0  0  0
    2.6796   -5.8754    0.0000 C   0  0  0  0  0  0  0  0  0  0  0  0
    3.4626   -6.1296    0.0000 N   0  0  0  0  0  0  0  0  0  0  0  0
    3.4622   -4.7977    0.0000 C   0  0  0  0  0  0  0  0  0  0  0  0
    3.9464   -5.4648    0.0000 C   0  0  0  0  0  0  0  0  0  0  0  0
    4.7617   -5.3795    0.0000 C   0  0  0  0  0  0  0  0  0  0  0  0
    5.0991   -4.6281    0.0000 N   0  0  0  0  0  0  0  0  0  0  0  0
    4.6150   -3.9610    0.0000 C   0  0  0  0  0  0  0  0  0  0  0  0
    3.7933   -4.0453    0.0000 C   0  0  0  0  0  0  0  0  0  0  0  0
    5.9120   -4.5442    0.0000 C   0  0  0  0  0  0  0  0  0  0  0  0
    6.3911   -5.2062    0.0000 O   0  0  0  0  0  0  0  0  0  0  0  0
    6.2458   -3.7983    0.0000 C   0  0  0  0  0  0  0  0  0  0  0  0
    7.0589   -3.7184    0.0000 C   0  0  0  0  0  0  0  0  0  0  0  0
    7.3927   -2.9734    0.0000 C   0  0  0  0  0  0  0  0  0  0  0  0
    6.9134   -2.3104    0.0000 C   0  0  0  0  0  0  0  0  0  0  0  0
    6.0966   -2.3973    0.0000 C   0  0  0  0  0  0  0  0  0  0  0  0
    5.7666   -3.1426    0.0000 C   0  0  0  0  0  0  0  0  0  0  0  0
    5.2416   -6.0382    0.0000 C   0  0  0  0  0  0  0  0  0  0  0  0
    4.9062   -6.7845    0.0000 C   0  0  0  0  0  0  0  0  0  0  0  0
    5.3845   -7.4461    0.0000 C   0  0  0  0  0  0  0  0  0  0  0  0
    6.1983   -7.3626    0.0000 C   0  0  0  0  0  0  0  0  0  0  0  0
    6.5314   -6.6117    0.0000 C   0  0  0  0  0  0  0  0  0  0  0  0
    6.0510   -5.9533    0.0000 C   0  0  0  0  0  0  0  0  0  0  0  0
    7.2462   -1.5640    0.0000 O   0  0  0  0  0  0  0  0  0  0  0  0
    8.0590   -1.4790    0.0000 C   0  0  0  0  0  0  0  0  0  0  0  0
    5.0504   -8.1919    0.0000 O   0  0  0  0  0  0  0  0  0  0  0  0
    4.2375   -8.2754    0.0000 C   0  0  0  0  0  0  0  0  0  0  0  0
  1  2  2  0
  2  3  1  0
  3  6  2  0
  5  4  2  0
  4  1  1  0
  5  6  1  0
  6  7  1  0
  7  9  1  0
  8  5  1  0
  8  9  2  0
  8 13  1  0
  9 10  1  0
 10 11  1  0
 11 12  1  0
 12 13  1  0
 11 14  1  0
 14 15  2  0
 14 16  1  0
 16 17  2  0
 17 18  1  0
 18 19  2  0
 19 20  1  0
 20 21  2  0
 21 16  1  0
 22 23  2  0
 23 24  1  0
 24 25  2  0
 25 26  1  0
 26 27  2  0
 27 22  1  0
 10 22  1  0
 19 28  1  0
 28 29  1  0
 24 30  1  0
 30 31  1  0
M  END
>  <Curated_InChIs>  (71) 
InChI=1S/C26H24N2O3/c1-30-19-12-10-17(11-13-19)26(29)28-15-14-22-21-8-3-4-9-23(21)27-24(22)25(28)18-6-5-7-20(16-18)31-2/h3-13,16,25,27H,14-15H2,1-2H3

>  <threshold>  (71) 
5

>  <pchembl>  (71) 
5.84

>  <Classification>  (71) 
1

>  <source>  (71) 
chembl_28

>  <SMILES>  (71) 
COc1ccc(C(=O)N2CCc3c([nH]c4ccccc34)C2c2cccc(OC)c2)cc1

>  <InChIKey>  (71) 
HQMNMYXRCMXMRT-UHFFFAOYSA-N

$$$$

     RDKit          2D

 25 28  0  0  0  0  0  0  0  0999 V2000
   17.9603  -11.2343    0.0000 C   0  0  0  0  0  0  0  0  0  0  0  0
   17.9591  -12.0538    0.0000 C   0  0  0  0  0  0  0  0  0  0  0  0
   18.6672  -12.4628    0.0000 C   0  0  0  0  0  0  0  0  0  0  0  0
   18.6654  -10.8254    0.0000 C   0  0  0  0  0  0  0  0  0  0  0  0
   19.3740  -11.2307    0.0000 C   0  0  0  0  0  0  0  0  0  0  0  0
   19.3748  -12.0497    0.0000 C   0  0  0  0  0  0  0  0  0  0  0  0
   20.0833  -12.4568    0.0000 N   0  0  0  0  0  0  0  0  0  0  0  0
   20.7916  -12.0459    0.0000 C   0  0  0  0  0  0  0  0  0  0  0  0
   20.7868  -11.2238    0.0000 N   0  0  0  0  0  0  0  0  0  0  0  0
   20.0777  -10.8204    0.0000 C   0  0  0  0  0  0  0  0  0  0  0  0
   20.0734  -10.0033    0.0000 N   0  0  0  0  0  0  0  0  0  0  0  0
   20.7789   -9.5909    0.0000 C   0  0  0  0  0  0  0  0  0  0  0  0
   21.4842   -9.9991    0.0000 C   0  0  0  0  0  0  0  0  0  0  0  0
   22.1893   -9.5875    0.0000 C   0  0  0  0  0  0  0  0  0  0  0  0
   22.1854   -8.7694    0.0000 C   0  0  0  0  0  0  0  0  0  0  0  0
   21.4705   -8.3648    0.0000 C   0  0  0  0  0  0  0  0  0  0  0  0
   20.7684   -8.7788    0.0000 C   0  0  0  0  0  0  0  0  0  0  0  0
   21.4973  -12.4477    0.0000 C   0  0  0  0  0  0  0  0  0  0  0  0
   21.4991  -13.2660    0.0000 C   0  0  0  0  0  0  0  0  0  0  0  0
   22.2076  -13.6718    0.0000 C   0  0  0  0  0  0  0  0  0  0  0  0
   22.9147  -13.2604    0.0000 C   0  0  0  0  0  0  0  0  0  0  0  0
   22.9089  -12.4390    0.0000 C   0  0  0  0  0  0  0  0  0  0  0  0
   22.1999  -12.0369    0.0000 C   0  0  0  0  0  0  0  0  0  0  0  0
   22.8989   -9.9927    0.0000 S   0  0  0  0  0  0  0  0  0  0  0  0
   22.9029  -10.8098    0.0000 C   0  0  0  0  0  0  0  0  0  0  0  0
  1  2  2  0
  2  3  1  0
  3  6  2  0
  5  4  2  0
  4  1  1  0
  5  6  1  0
  6  7  1  0
  7  8  2  0
  8  9  1  0
  9 10  2  0
 10  5  1  0
 10 11  1  0
 11 12  1  0
 12 13  2  0
 13 14  1  0
 14 15  2  0
 15 16  1  0
 16 17  2  0
 17 12  1  0
 18 19  2  0
 19 20  1  0
 20 21  2  0
 21 22  1  0
 22 23  2  0
 23 18  1  0
  8 18  1  0
 14 24  1  0
 24 25  1  0
M  END
>  <Curated_InChIs>  (72) 
InChI=1S/C21H17N3S/c1-25-17-11-7-10-16(14-17)22-21-18-12-5-6-13-19(18)23-20(24-21)15-8-3-2-4-9-15/h2-14H,1H3,(H,22,23,24)

>  <threshold>  (72) 
5

>  <pchembl>  (72) 
5.92

>  <Classification>  (72) 
1

>  <source>  (72) 
chembl_28

>  <SMILES>  (72) 
CSc1cccc(Nc2nc(-c3ccccc3)nc3ccccc23)c1

>  <InChIKey>  (72) 
HQOYRLKAIJOQPD-UHFFFAOYSA-N

$$$$

     RDKit          2D

 27 30  0  0  0  0  0  0  0  0999 V2000
    1.9848   -0.5424    0.0000 O   0  0  0  0  0  0  0  0  0  0  0  0
   -3.0164    0.6951    0.0000 N   0  0  0  0  0  0  0  0  0  0  0  0
   -2.3020    1.9326    0.0000 N   0  0  0  0  0  0  0  0  0  0  0  0
   -2.3020   -0.5424    0.0000 N   0  0  0  0  0  0  0  0  0  0  0  0
    0.5559   -0.5424    0.0000 N   0  0  0  0  0  0  0  0  0  0  0  0
   -1.5875    0.6951    0.0000 C   0  0  0  0  0  0  0  0  0  0  0  0
   -2.3020    0.2826    0.0000 C   0  0  0  0  0  0  0  0  0  0  0  0
   -1.5875    1.5201    0.0000 C   0  0  0  0  0  0  0  0  0  0  0  0
   -3.0164    1.5201    0.0000 C   0  0  0  0  0  0  0  0  0  0  0  0
   -3.7309    1.9326    0.0000 C   0  0  0  0  0  0  0  0  0  0  0  0
   -0.8730    0.2826    0.0000 C   0  0  0  0  0  0  0  0  0  0  0  0
   -1.5875   -0.9549    0.0000 C   0  0  0  0  0  0  0  0  0  0  0  0
   -0.8730    1.9326    0.0000 C   0  0  0  0  0  0  0  0  0  0  0  0
   -0.1586    0.6951    0.0000 C   0  0  0  0  0  0  0  0  0  0  0  0
   -0.1586    1.5201    0.0000 C   0  0  0  0  0  0  0  0  0  0  0  0
   -0.8730   -0.5424    0.0000 C   0  0  0  0  0  0  0  0  0  0  0  0
   -4.4454    1.5201    0.0000 C   0  0  0  0  0  0  0  0  0  0  0  0
   -3.7309    2.7576    0.0000 C   0  0  0  0  0  0  0  0  0  0  0  0
   -0.1586   -0.9549    0.0000 C   0  0  0  0  0  0  0  0  0  0  0  0
   -1.5875   -1.7799    0.0000 C   0  0  0  0  0  0  0  0  0  0  0  0
   -0.1586   -1.7799    0.0000 C   0  0  0  0  0  0  0  0  0  0  0  0
   -0.8730   -2.1924    0.0000 C   0  0  0  0  0  0  0  0  0  0  0  0
   -5.1599    1.9326    0.0000 C   0  0  0  0  0  0  0  0  0  0  0  0
   -4.4454    3.1701    0.0000 C   0  0  0  0  0  0  0  0  0  0  0  0
   -5.1599    2.7576    0.0000 C   0  0  0  0  0  0  0  0  0  0  0  0
    1.2704   -0.9549    0.0000 C   0  0  0  0  0  0  0  0  0  0  0  0
    1.2704   -1.7799    0.0000 C   0  0  0  0  0  0  0  0  0  0  0  0
  1 26  2  0
  2  7  2  0
  2  9  1  0
  3  8  1  0
  3  9  2  0
  4  7  1  0
  4 12  1  0
  5 19  1  0
  5 26  1  0
  6  7  1  0
  6  8  2  0
  6 11  1  0
  8 13  1  0
  9 10  1  0
 10 17  2  0
 10 18  1  0
 11 14  2  0
 12 16  2  0
 12 20  1  0
 13 15  2  0
 14 15  1  0
 16 19  1  0
 17 23  1  0
 18 24  2  0
 19 21  2  0
 20 22  2  0
 21 22  1  0
 23 25  2  0
 24 25  1  0
 26 27  1  0
M  END
>  <Curated_InChIs>  (73) 
InChI=1S/C22H18N4O/c1-15(27)23-17-10-7-11-18(14-17)24-22-19-12-5-6-13-20(19)25-21(26-22)16-8-3-2-4-9-16/h2-14H,1H3,(H,23,27)(H,24,25,26)

>  <threshold>  (73) 
5

>  <pchembl>  (73) 
6.65, 6.56

>  <Classification>  (73) 
1

>  <source>  (73) 
chembl_28

>  <SMILES>  (73) 
CC(=O)Nc1cccc(Nc2nc(-c3ccccc3)nc3ccccc23)c1

>  <InChIKey>  (73) 
IBCJHQBSQYNQJM-UHFFFAOYSA-N

$$$$

     RDKit          2D

 26 29  0  0  0  0  0  0  0  0999 V2000
   34.1803   -3.0170    0.0000 C   0  0  0  0  0  0  0  0  0  0  0  0
   34.1791   -3.8365    0.0000 C   0  0  0  0  0  0  0  0  0  0  0  0
   34.8872   -4.2455    0.0000 C   0  0  0  0  0  0  0  0  0  0  0  0
   34.8854   -2.6081    0.0000 C   0  0  0  0  0  0  0  0  0  0  0  0
   35.5940   -3.0134    0.0000 C   0  0  0  0  0  0  0  0  0  0  0  0
   35.5948   -3.8324    0.0000 C   0  0  0  0  0  0  0  0  0  0  0  0
   36.3033   -4.2394    0.0000 N   0  0  0  0  0  0  0  0  0  0  0  0
   37.0116   -3.8286    0.0000 C   0  0  0  0  0  0  0  0  0  0  0  0
   37.0068   -3.0065    0.0000 N   0  0  0  0  0  0  0  0  0  0  0  0
   36.2977   -2.6031    0.0000 C   0  0  0  0  0  0  0  0  0  0  0  0
   36.2934   -1.7860    0.0000 N   0  0  0  0  0  0  0  0  0  0  0  0
   36.9989   -1.3736    0.0000 C   0  0  0  0  0  0  0  0  0  0  0  0
   37.7042   -1.7818    0.0000 C   0  0  0  0  0  0  0  0  0  0  0  0
   38.4093   -1.3702    0.0000 C   0  0  0  0  0  0  0  0  0  0  0  0
   38.4054   -0.5521    0.0000 C   0  0  0  0  0  0  0  0  0  0  0  0
   37.6905   -0.1475    0.0000 C   0  0  0  0  0  0  0  0  0  0  0  0
   36.9884   -0.5615    0.0000 C   0  0  0  0  0  0  0  0  0  0  0  0
   37.7173   -4.2304    0.0000 C   0  0  0  0  0  0  0  0  0  0  0  0
   37.7192   -5.0487    0.0000 C   0  0  0  0  0  0  0  0  0  0  0  0
   38.4276   -5.4545    0.0000 C   0  0  0  0  0  0  0  0  0  0  0  0
   39.1347   -5.0431    0.0000 C   0  0  0  0  0  0  0  0  0  0  0  0
   39.1289   -4.2216    0.0000 C   0  0  0  0  0  0  0  0  0  0  0  0
   38.4199   -3.8196    0.0000 C   0  0  0  0  0  0  0  0  0  0  0  0
   39.1189   -1.7754    0.0000 O   0  0  0  0  0  0  0  0  0  0  0  0
   39.1229   -2.5925    0.0000 C   0  0  0  0  0  0  0  0  0  0  0  0
   39.1104   -0.1388    0.0000 Br  0  0  0  0  0  0  0  0  0  0  0  0
  1  2  2  0
  2  3  1  0
  3  6  2  0
  5  4  2  0
  4  1  1  0
  5  6  1  0
  6  7  1  0
  7  8  2  0
  8  9  1  0
  9 10  2  0
 10  5  1  0
 10 11  1  0
 11 12  1  0
 12 13  2  0
 13 14  1  0
 14 15  2  0
 15 16  1  0
 16 17  2  0
 17 12  1  0
 18 19  2  0
 19 20  1  0
 20 21  2  0
 21 22  1  0
 22 23  2  0
 23 18  1  0
  8 18  1  0
 14 24  1  0
 24 25  1  0
 15 26  1  0
M  END
>  <Curated_InChIs>  (74) 
InChI=1S/C21H16BrN3O/c1-26-19-13-15(11-12-17(19)22)23-21-16-9-5-6-10-18(16)24-20(25-21)14-7-3-2-4-8-14/h2-13H,1H3,(H,23,24,25)

>  <threshold>  (74) 
5

>  <pchembl>  (74) 
6.7, 6.54

>  <Classification>  (74) 
1

>  <source>  (74) 
chembl_28

>  <SMILES>  (74) 
COc1cc(Nc2nc(-c3ccccc3)nc3ccccc23)ccc1Br

>  <InChIKey>  (74) 
ICRIKLVUKBMQOC-UHFFFAOYSA-N

$$$$

     RDKit          2D

 29 32  0  0  0  0  0  0  0  0999 V2000
   10.2218   -8.3953    0.0000 C   0  0  0  0  0  0  0  0  0  0  0  0
   11.0390   -8.3953    0.0000 C   0  0  0  0  0  0  0  0  0  0  0  0
   11.4476   -7.6862    0.0000 C   0  0  0  0  0  0  0  0  0  0  0  0
   12.2648   -7.6862    0.0000 C   0  0  0  0  0  0  0  0  0  0  0  0
   12.6734   -8.3953    0.0000 C   0  0  0  0  0  0  0  0  0  0  0  0
   12.2648   -9.1044    0.0000 C   0  0  0  0  0  0  0  0  0  0  0  0
   11.4476   -9.1044    0.0000 C   0  0  0  0  0  0  0  0  0  0  0  0
    9.8132   -9.1044    0.0000 O   0  0  0  0  0  0  0  0  0  0  0  0
    9.8132   -7.6862    0.0000 N   0  0  0  0  0  0  0  0  0  0  0  0
   10.2218   -6.9812    0.0000 C   0  0  0  0  0  0  0  0  0  0  0  0
    9.8132   -6.2721    0.0000 C   0  0  0  0  0  0  0  0  0  0  0  0
   10.2218   -5.5630    0.0000 C   0  0  0  0  0  0  0  0  0  0  0  0
   11.0390   -5.5630    0.0000 C   0  0  0  0  0  0  0  0  0  0  0  0
   11.4476   -6.2721    0.0000 C   0  0  0  0  0  0  0  0  0  0  0  0
   11.0390   -6.9812    0.0000 C   0  0  0  0  0  0  0  0  0  0  0  0
    8.5158   -6.9313    0.0000 N   0  0  0  0  0  0  0  0  0  0  0  0
    7.7386   -6.6807    0.0000 N   0  0  0  0  0  0  0  0  0  0  0  0
    7.7386   -5.8635    0.0000 N   0  0  0  0  0  0  0  0  0  0  0  0
    8.5158   -5.6130    0.0000 N   0  0  0  0  0  0  0  0  0  0  0  0
    8.9960   -6.2721    0.0000 C   0  0  0  0  0  0  0  0  0  0  0  0
    7.0795   -7.1609    0.0000 C   0  0  0  0  0  0  0  0  0  0  0  0
    7.1635   -7.9754    0.0000 C   0  0  0  0  0  0  0  0  0  0  0  0
    6.5044   -8.4555    0.0000 C   0  0  0  0  0  0  0  0  0  0  0  0
    5.7571   -8.1212    0.0000 C   0  0  0  0  0  0  0  0  0  0  0  0
    5.6731   -7.3066    0.0000 C   0  0  0  0  0  0  0  0  0  0  0  0
    6.3322   -6.8265    0.0000 C   0  0  0  0  0  0  0  0  0  0  0  0
   12.6770   -9.8135    0.0000 N   0  0  0  0  0  0  0  0  0  0  0  0
   13.4942   -9.8132    0.0000 O   0  0  0  0  0  0  0  0  0  0  0  0
   12.2687  -10.5214    0.0000 O   0  0  0  0  0  0  0  0  0  0  0  0
  1  2  1  0
  2  3  2  0
  3  4  1  0
  4  5  2  0
  5  6  1  0
  6  7  2  0
  2  7  1  0
  1  8  2  0
  1  9  1  0
 10 11  1  0
 11 12  2  0
 12 13  1  0
 13 14  2  0
 14 15  1  0
 10 15  2  0
 16 17  1  0
 17 18  1  0
 18 19  2  0
 19 20  1  0
 16 20  2  0
 21 22  2  0
 22 23  1  0
 23 24  2  0
 24 25  1  0
 25 26  2  0
 21 26  1  0
 17 21  1  0
 11 20  1  0
  9 10  1  0
 27 28  2  0
 27 29  1  0
  6 27  1  0
M  CHG  2  27   1  29  -1
M  END
>  <Curated_InChIs>  (75) 
InChI=1S/C20H14N6O3/c27-20(14-7-6-10-16(13-14)26(28)29)21-18-12-5-4-11-17(18)19-22-24-25(23-19)15-8-2-1-3-9-15/h1-13H,(H,21,27)

>  <threshold>  (75) 
5

>  <pchembl>  (75) 
6.91, 6.9

>  <Classification>  (75) 
1

>  <source>  (75) 
chembl_28

>  <SMILES>  (75) 
O=C(Nc1ccccc1-c1nnn(-c2ccccc2)n1)c1cccc([N+](=O)[O-])c1

>  <InChIKey>  (75) 
IEIQBMNYLHNEDD-UHFFFAOYSA-N

$$$$

     RDKit          2D

 38 42  0  0  0  0  0  0  0  0999 V2000
    9.7692  -15.6174    0.0000 C   0  0  0  0  0  0  0  0  0  0  0  0
    9.7692  -16.4346    0.0000 C   0  0  0  0  0  0  0  0  0  0  0  0
   10.4744  -16.8391    0.0000 O   0  0  0  0  0  0  0  0  0  0  0  0
   10.4744  -15.2047    0.0000 C   0  0  0  0  0  0  0  0  0  0  0  0
   11.1797  -15.6174    0.0000 C   0  0  0  0  0  0  0  0  0  0  0  0
   11.1781  -16.4328    0.0000 C   0  0  0  0  0  0  0  0  0  0  0  0
   11.8823  -16.8401    0.0000 C   0  0  0  0  0  0  0  0  0  0  0  0
   12.5886  -16.4331    0.0000 C   0  0  0  0  0  0  0  0  0  0  0  0
   12.5863  -15.6146    0.0000 C   0  0  0  0  0  0  0  0  0  0  0  0
   11.8815  -15.2110    0.0000 C   0  0  0  0  0  0  0  0  0  0  0  0
    9.0630  -16.8447    0.0000 C   0  0  0  0  0  0  0  0  0  0  0  0
    8.3544  -16.4354    0.0000 C   0  0  0  0  0  0  0  0  0  0  0  0
    7.6478  -16.8444    0.0000 C   0  0  0  0  0  0  0  0  0  0  0  0
    7.6485  -17.6625    0.0000 C   0  0  0  0  0  0  0  0  0  0  0  0
    8.3618  -18.0698    0.0000 C   0  0  0  0  0  0  0  0  0  0  0  0
    9.0655  -17.6586    0.0000 C   0  0  0  0  0  0  0  0  0  0  0  0
   10.4744  -14.3875    0.0000 O   0  0  0  0  0  0  0  0  0  0  0  0
    9.0602  -15.2109    0.0000 O   0  0  0  0  0  0  0  0  0  0  0  0
    8.3537  -15.6216    0.0000 C   0  0  0  0  0  0  0  0  0  0  0  0
    7.6448  -15.2151    0.0000 C   0  0  0  0  0  0  0  0  0  0  0  0
    6.9383  -15.6257    0.0000 N   0  0  0  0  0  0  0  0  0  0  0  0
    7.6424  -14.3979    0.0000 O   0  0  0  0  0  0  0  0  0  0  0  0
    6.9397  -16.4365    0.0000 O   0  0  0  0  0  0  0  0  0  0  0  0
    6.2323  -16.8458    0.0000 C   0  0  0  0  0  0  0  0  0  0  0  0
    6.2294  -15.2192    0.0000 C   0  0  0  0  0  0  0  0  0  0  0  0
    6.9419  -18.0730    0.0000 O   0  0  0  0  0  0  0  0  0  0  0  0
    6.2331  -17.6664    0.0000 C   0  0  0  0  0  0  0  0  0  0  0  0
    8.3659  -18.8870    0.0000 O   0  0  0  0  0  0  0  0  0  0  0  0
    7.6602  -19.2991    0.0000 C   0  0  0  0  0  0  0  0  0  0  0  0
    6.2312  -14.4031    0.0000 C   0  0  0  0  0  0  0  0  0  0  0  0
    5.5232  -13.9966    0.0000 C   0  0  0  0  0  0  0  0  0  0  0  0
    5.5293  -15.6315    0.0000 C   0  0  0  0  0  0  0  0  0  0  0  0
    4.8207  -15.2287    0.0000 C   0  0  0  0  0  0  0  0  0  0  0  0
    4.8120  -14.4065    0.0000 C   0  0  0  0  0  0  0  0  0  0  0  0
    4.0274  -14.1606    0.0000 C   0  0  0  0  0  0  0  0  0  0  0  0
    3.5510  -14.8310    0.0000 O   0  0  0  0  0  0  0  0  0  0  0  0
    4.0414  -15.4910    0.0000 C   0  0  0  0  0  0  0  0  0  0  0  0
    3.7667  -13.3861    0.0000 O   0  0  0  0  0  0  0  0  0  0  0  0
  1  2  2  0
  1  4  1  0
  2  3  1  0
  3  6  1  0
  5  4  1  0
  5  6  2  0
  6  7  1  0
  7  8  2  0
  8  9  1  0
  9 10  2  0
 10  5  1  0
 11 12  2  0
 12 13  1  0
 13 14  2  0
 14 15  1  0
 15 16  2  0
 16 11  1  0
  2 11  1  0
  4 17  2  0
  1 18  1  0
 18 19  1  0
 19 20  1  0
 20 21  1  0
 20 22  2  0
 13 23  1  0
 23 24  1  0
 21 25  1  0
 14 26  1  0
 26 27  1  0
 15 28  1  0
 28 29  1  0
 25 30  2  0
 30 31  1  0
 31 34  2  0
 33 32  2  0
 32 25  1  0
 33 34  1  0
 34 35  1  0
 35 36  1  0
 36 37  1  0
 37 33  1  0
 35 38  2  0
M  END
>  <Curated_InChIs>  (76) 
InChI=1S/C28H23NO9/c1-33-21-11-15(12-22(34-2)26(21)35-3)25-27(24(31)19-6-4-5-7-20(19)38-25)36-14-23(30)29-17-8-9-18-16(10-17)13-37-28(18)32/h4-12H,13-14H2,1-3H3,(H,29,30)

>  <threshold>  (76) 
5

>  <pchembl>  (76) 
5.05

>  <Classification>  (76) 
1

>  <source>  (76) 
chembl_28

>  <SMILES>  (76) 
COc1cc(-c2oc3ccccc3c(=O)c2OCC(=O)Nc2ccc3c(c2)COC3=O)cc(OC)c1OC

>  <InChIKey>  (76) 
IIGFNHKQSOAURM-UHFFFAOYSA-N

$$$$

     RDKit          2D

 28 32  0  0  0  0  0  0  0  0999 V2000
   11.8313   -3.6030    0.0000 C   0  0  0  0  0  0  0  0  0  0  0  0
   11.8302   -4.4226    0.0000 C   0  0  0  0  0  0  0  0  0  0  0  0
   12.5382   -4.8315    0.0000 C   0  0  0  0  0  0  0  0  0  0  0  0
   12.5365   -3.1942    0.0000 C   0  0  0  0  0  0  0  0  0  0  0  0
   13.2451   -3.5994    0.0000 C   0  0  0  0  0  0  0  0  0  0  0  0
   13.2453   -4.4226    0.0000 C   0  0  0  0  0  0  0  0  0  0  0  0
   14.0283   -4.6768    0.0000 N   0  0  0  0  0  0  0  0  0  0  0  0
   14.0279   -3.3449    0.0000 C   0  0  0  0  0  0  0  0  0  0  0  0
   14.5121   -4.0120    0.0000 C   0  0  0  0  0  0  0  0  0  0  0  0
   15.3274   -3.9267    0.0000 C   0  0  0  0  0  0  0  0  0  0  0  0
   15.6648   -3.1753    0.0000 N   0  0  0  0  0  0  0  0  0  0  0  0
   15.1807   -2.5082    0.0000 C   0  0  0  0  0  0  0  0  0  0  0  0
   14.3590   -2.5925    0.0000 C   0  0  0  0  0  0  0  0  0  0  0  0
   16.4777   -3.0914    0.0000 C   0  0  0  0  0  0  0  0  0  0  0  0
   16.9568   -3.7534    0.0000 O   0  0  0  0  0  0  0  0  0  0  0  0
   16.8115   -2.3455    0.0000 C   0  0  0  0  0  0  0  0  0  0  0  0
   17.6246   -2.2657    0.0000 C   0  0  0  0  0  0  0  0  0  0  0  0
   17.9584   -1.5206    0.0000 C   0  0  0  0  0  0  0  0  0  0  0  0
   17.4792   -0.8576    0.0000 C   0  0  0  0  0  0  0  0  0  0  0  0
   16.6623   -0.9445    0.0000 C   0  0  0  0  0  0  0  0  0  0  0  0
   16.3323   -1.6898    0.0000 C   0  0  0  0  0  0  0  0  0  0  0  0
   15.8073   -4.5854    0.0000 C   0  0  0  0  0  0  0  0  0  0  0  0
   15.4719   -5.3318    0.0000 C   0  0  0  0  0  0  0  0  0  0  0  0
   15.9502   -5.9934    0.0000 C   0  0  0  0  0  0  0  0  0  0  0  0
   16.7640   -5.9098    0.0000 C   0  0  0  0  0  0  0  0  0  0  0  0
   17.0971   -5.1590    0.0000 C   0  0  0  0  0  0  0  0  0  0  0  0
   16.6167   -4.5005    0.0000 C   0  0  0  0  0  0  0  0  0  0  0  0
   17.2440   -6.5712    0.0000 Cl  0  0  0  0  0  0  0  0  0  0  0  0
  1  2  2  0
  2  3  1  0
  3  6  2  0
  5  4  2  0
  4  1  1  0
  5  6  1  0
  6  7  1  0
  7  9  1  0
  8  5  1  0
  8  9  2  0
  8 13  1  0
  9 10  1  0
 10 11  1  0
 11 12  1  0
 12 13  1  0
 11 14  1  0
 14 15  2  0
 14 16  1  0
 16 17  2  0
 17 18  1  0
 18 19  2  0
 19 20  1  0
 20 21  2  0
 21 16  1  0
 22 23  2  0
 23 24  1  0
 24 25  2  0
 25 26  1  0
 26 27  2  0
 27 22  1  0
 10 22  1  0
 25 28  1  0
M  END
>  <Curated_InChIs>  (77) 
InChI=1S/C24H19ClN2O/c25-18-12-10-16(11-13-18)23-22-20(19-8-4-5-9-21(19)26-22)14-15-27(23)24(28)17-6-2-1-3-7-17/h1-13,23,26H,14-15H2

>  <threshold>  (77) 
5

>  <pchembl>  (77) 
6.13, 7.22, 6.11, 6.25

>  <Classification>  (77) 
1

>  <source>  (77) 
chembl_28

>  <SMILES>  (77) 
O=C(c1ccccc1)N1CCc2c([nH]c3ccccc23)C1c1ccc(Cl)cc1

>  <InChIKey>  (77) 
ILBXHMLHMLGBPH-UHFFFAOYSA-N

$$$$

     RDKit          2D

 28 31  0  0  0  0  0  0  0  0999 V2000
   18.0841   -4.1148    0.0000 C   0  0  0  0  0  0  0  0  0  0  0  0
   18.0830   -4.9343    0.0000 C   0  0  0  0  0  0  0  0  0  0  0  0
   18.7910   -5.3433    0.0000 C   0  0  0  0  0  0  0  0  0  0  0  0
   18.7892   -3.7059    0.0000 C   0  0  0  0  0  0  0  0  0  0  0  0
   19.4978   -4.1112    0.0000 C   0  0  0  0  0  0  0  0  0  0  0  0
   19.4986   -4.9302    0.0000 C   0  0  0  0  0  0  0  0  0  0  0  0
   20.2071   -5.3373    0.0000 N   0  0  0  0  0  0  0  0  0  0  0  0
   20.9154   -4.9265    0.0000 C   0  0  0  0  0  0  0  0  0  0  0  0
   20.9107   -4.1043    0.0000 N   0  0  0  0  0  0  0  0  0  0  0  0
   20.2015   -3.7010    0.0000 C   0  0  0  0  0  0  0  0  0  0  0  0
   21.6288   -5.3295    0.0000 C   0  0  0  0  0  0  0  0  0  0  0  0
   20.1972   -2.8838    0.0000 N   0  0  0  0  0  0  0  0  0  0  0  0
   21.6316   -6.1487    0.0000 C   0  0  0  0  0  0  0  0  0  0  0  0
   22.3442   -6.5516    0.0000 C   0  0  0  0  0  0  0  0  0  0  0  0
   23.0509   -6.1352    0.0000 C   0  0  0  0  0  0  0  0  0  0  0  0
   23.0405   -5.3117    0.0000 C   0  0  0  0  0  0  0  0  0  0  0  0
   22.3274   -4.9124    0.0000 C   0  0  0  0  0  0  0  0  0  0  0  0
   20.9027   -2.4715    0.0000 C   0  0  0  0  0  0  0  0  0  0  0  0
   20.8984   -1.6543    0.0000 O   0  0  0  0  0  0  0  0  0  0  0  0
   21.6126   -2.8763    0.0000 C   0  0  0  0  0  0  0  0  0  0  0  0
   21.6117   -3.6908    0.0000 C   0  0  0  0  0  0  0  0  0  0  0  0
   22.3208   -4.0956    0.0000 C   0  0  0  0  0  0  0  0  0  0  0  0
   23.0273   -3.6832    0.0000 C   0  0  0  0  0  0  0  0  0  0  0  0
   23.0203   -2.8618    0.0000 C   0  0  0  0  0  0  0  0  0  0  0  0
   22.3107   -2.4607    0.0000 C   0  0  0  0  0  0  0  0  0  0  0  0
   23.7284   -2.4457    0.0000 N   0  0  0  0  0  0  0  0  0  0  0  0
   23.7211   -1.6286    0.0000 O   0  0  0  0  0  0  0  0  0  0  0  0
   24.4397   -2.8481    0.0000 O   0  0  0  0  0  0  0  0  0  0  0  0
  1  2  2  0
  2  3  1  0
  3  6  2  0
  5  4  2  0
  4  1  1  0
  5  6  1  0
  6  7  1  0
  7  8  2  0
  8  9  1  0
  9 10  2  0
 10  5  1  0
  8 11  1  0
 10 12  1  0
 11 13  2  0
 13 14  1  0
 14 15  2  0
 15 16  1  0
 16 17  2  0
 17 11  1  0
 12 18  1  0
 18 19  2  0
 18 20  1  0
 20 21  2  0
 21 22  1  0
 22 23  2  0
 23 24  1  0
 24 25  2  0
 25 20  1  0
 26 27  2  0
 26 28  1  0
 24 26  1  0
M  CHG  2  26   1  28  -1
M  END
>  <Curated_InChIs>  (78) 
InChI=1S/C21H14N4O3/c26-21(15-9-6-10-16(13-15)25(27)28)24-20-17-11-4-5-12-18(17)22-19(23-20)14-7-2-1-3-8-14/h1-13H,(H,22,23,24,26)

>  <threshold>  (78) 
5

>  <pchembl>  (78) 
7.33, 7.26

>  <Classification>  (78) 
1

>  <source>  (78) 
chembl_28

>  <SMILES>  (78) 
O=C(Nc1nc(-c2ccccc2)nc2ccccc12)c1cccc([N+](=O)[O-])c1

>  <InChIKey>  (78) 
INIHDUJEBIVBBD-UHFFFAOYSA-N

$$$$

     RDKit          2D

 24 27  0  0  0  0  0  0  0  0999 V2000
    1.3482  -19.4929    0.0000 C   0  0  0  0  0  0  0  0  0  0  0  0
    1.3470  -20.3124    0.0000 C   0  0  0  0  0  0  0  0  0  0  0  0
    2.0551  -20.7214    0.0000 C   0  0  0  0  0  0  0  0  0  0  0  0
    2.0533  -19.0840    0.0000 C   0  0  0  0  0  0  0  0  0  0  0  0
    2.7619  -19.4893    0.0000 C   0  0  0  0  0  0  0  0  0  0  0  0
    2.7627  -20.3083    0.0000 C   0  0  0  0  0  0  0  0  0  0  0  0
    3.4712  -20.7153    0.0000 N   0  0  0  0  0  0  0  0  0  0  0  0
    4.1795  -20.3045    0.0000 C   0  0  0  0  0  0  0  0  0  0  0  0
    4.1747  -19.4824    0.0000 N   0  0  0  0  0  0  0  0  0  0  0  0
    3.4656  -19.0790    0.0000 C   0  0  0  0  0  0  0  0  0  0  0  0
    3.4613  -18.2618    0.0000 N   0  0  0  0  0  0  0  0  0  0  0  0
    4.1668  -17.8495    0.0000 C   0  0  0  0  0  0  0  0  0  0  0  0
    4.8721  -18.2577    0.0000 C   0  0  0  0  0  0  0  0  0  0  0  0
    5.5772  -17.8461    0.0000 C   0  0  0  0  0  0  0  0  0  0  0  0
    5.5733  -17.0280    0.0000 C   0  0  0  0  0  0  0  0  0  0  0  0
    4.8584  -16.6234    0.0000 C   0  0  0  0  0  0  0  0  0  0  0  0
    4.1563  -17.0374    0.0000 C   0  0  0  0  0  0  0  0  0  0  0  0
    4.8852  -20.7063    0.0000 C   0  0  0  0  0  0  0  0  0  0  0  0
    4.8871  -21.5246    0.0000 C   0  0  0  0  0  0  0  0  0  0  0  0
    5.5955  -21.9303    0.0000 C   0  0  0  0  0  0  0  0  0  0  0  0
    6.3026  -21.5189    0.0000 C   0  0  0  0  0  0  0  0  0  0  0  0
    6.2968  -20.6975    0.0000 C   0  0  0  0  0  0  0  0  0  0  0  0
    5.5878  -20.2955    0.0000 C   0  0  0  0  0  0  0  0  0  0  0  0
    6.2868  -18.2512    0.0000 I   0  0  0  0  0  0  0  0  0  0  0  0
  1  2  2  0
  2  3  1  0
  3  6  2  0
  5  4  2  0
  4  1  1  0
  5  6  1  0
  6  7  1  0
  7  8  2  0
  8  9  1  0
  9 10  2  0
 10  5  1  0
 10 11  1  0
 11 12  1  0
 12 13  2  0
 13 14  1  0
 14 15  2  0
 15 16  1  0
 16 17  2  0
 17 12  1  0
 18 19  2  0
 19 20  1  0
 20 21  2  0
 21 22  1  0
 22 23  2  0
 23 18  1  0
  8 18  1  0
 14 24  1  0
M  END
>  <Curated_InChIs>  (79) 
InChI=1S/C20H14IN3/c21-15-9-6-10-16(13-15)22-20-17-11-4-5-12-18(17)23-19(24-20)14-7-2-1-3-8-14/h1-13H,(H,22,23,24)

>  <threshold>  (79) 
5

>  <pchembl>  (79) 
6.1

>  <Classification>  (79) 
1

>  <source>  (79) 
chembl_28

>  <SMILES>  (79) 
Ic1cccc(Nc2nc(-c3ccccc3)nc3ccccc23)c1

>  <InChIKey>  (79) 
IQCWSDADTUFGCQ-UHFFFAOYSA-N

$$$$

     RDKit          2D

 26 28  0  0  0  0  0  0  0  0999 V2000
   10.4724   -9.0723    0.0000 C   0  0  0  0  0  0  0  0  0  0  0  0
   11.2296   -8.7329    0.0000 N   0  0  0  0  0  0  0  0  0  0  0  0
   10.5636   -9.9021    0.0000 N   0  0  0  0  0  0  0  0  0  0  0  0
    9.7531   -8.6604    0.0000 S   0  0  0  0  0  0  0  0  0  0  0  0
    8.3163   -8.6665    0.0000 C   0  0  0  0  0  0  0  0  0  0  0  0
   11.3760  -10.0698    0.0000 C   0  0  0  0  0  0  0  0  0  0  0  0
    9.0356   -9.0782    0.0000 C   0  0  0  0  0  0  0  0  0  0  0  0
   11.7878   -9.3506    0.0000 C   0  0  0  0  0  0  0  0  0  0  0  0
    8.3188   -7.8391    0.0000 C   0  0  0  0  0  0  0  0  0  0  0  0
   11.7981  -10.7897    0.0000 C   0  0  0  0  0  0  0  0  0  0  0  0
    7.6030   -9.0867    0.0000 N   0  0  0  0  0  0  0  0  0  0  0  0
   13.8782  -11.4887    0.0000 C   0  0  0  0  0  0  0  0  0  0  0  0
    7.6039   -7.4297    0.0000 C   0  0  0  0  0  0  0  0  0  0  0  0
    9.7513   -7.8308    0.0000 O   0  0  0  0  0  0  0  0  0  0  0  0
   12.6259  -10.7814    0.0000 C   0  0  0  0  0  0  0  0  0  0  0  0
   13.0461  -11.4946    0.0000 O   0  0  0  0  0  0  0  0  0  0  0  0
   12.6157   -9.3422    0.0000 C   0  0  0  0  0  0  0  0  0  0  0  0
   14.2816  -10.7646    0.0000 F   0  0  0  0  0  0  0  0  0  0  0  0
   14.2985  -12.2020    0.0000 F   0  0  0  0  0  0  0  0  0  0  0  0
    9.0382   -7.4280    0.0000 O   0  0  0  0  0  0  0  0  0  0  0  0
    6.8838   -8.6748    0.0000 C   0  0  0  0  0  0  0  0  0  0  0  0
   13.0359  -10.0555    0.0000 C   0  0  0  0  0  0  0  0  0  0  0  0
    6.8821   -7.8451    0.0000 C   0  0  0  0  0  0  0  0  0  0  0  0
    7.6021   -6.6001    0.0000 O   0  0  0  0  0  0  0  0  0  0  0  0
    9.0365   -6.5983    0.0000 C   0  0  0  0  0  0  0  0  0  0  0  0
    8.3239   -6.1846    0.0000 C   0  0  0  0  0  0  0  0  0  0  0  0
  2  1  1  0
  3  1  2  0
  4  1  1  0
  5  7  1  0
  6  3  1  0
  7  4  1  0
  8  2  1  0
  9  5  2  0
 10  6  2  0
 11  5  1  0
 12 16  1  0
 13  9  1  0
 14  4  1  0
 15 10  1  0
 16 15  1  0
 17  8  2  0
 18 12  1  0
 19 12  1  0
 20  9  1  0
 21 11  2  0
 22 17  1  0
 23 13  2  0
 24 13  1  0
 25 20  1  0
 26 24  1  0
  6  8  1  0
 15 22  2  0
 23 21  1  0
M  CHG  2   4   1  14  -1
M  END
>  <Curated_InChIs>  (80) 
InChI=1S/C16H15F2N3O4S/c1-23-13-5-6-19-12(14(13)24-2)8-26(22)16-20-10-4-3-9(25-15(17)18)7-11(10)21-16/h3-7,15H,8H2,1-2H3,(H,20,21)

>  <threshold>  (80) 
5

>  <pchembl>  (80) 
5.0

>  <Classification>  (80) 
1

>  <source>  (80) 
chembl_28

>  <SMILES>  (80) 
COc1ccnc(C[S+]([O-])c2nc3cc(OC(F)F)ccc3[nH]2)c1OC

>  <InChIKey>  (80) 
IQPSEEYGBUAQFF-UHFFFAOYSA-N

$$$$

     RDKit          2D

 27 30  0  0  0  0  0  0  0  0999 V2000
    5.5635  -15.5968    0.0000 O   0  0  0  0  0  0  0  0  0  0  0  0
    5.9762  -16.3067    0.0000 S   0  0  0  0  0  0  0  0  0  0  0  0
    6.3846  -15.5943    0.0000 O   0  0  0  0  0  0  0  0  0  0  0  0
    1.0469  -19.1874    0.0000 C   0  0  0  0  0  0  0  0  0  0  0  0
    1.0458  -20.0070    0.0000 C   0  0  0  0  0  0  0  0  0  0  0  0
    1.7538  -20.4159    0.0000 C   0  0  0  0  0  0  0  0  0  0  0  0
    1.7520  -18.7786    0.0000 C   0  0  0  0  0  0  0  0  0  0  0  0
    2.4606  -19.1838    0.0000 C   0  0  0  0  0  0  0  0  0  0  0  0
    2.4614  -20.0029    0.0000 C   0  0  0  0  0  0  0  0  0  0  0  0
    3.1699  -20.4099    0.0000 N   0  0  0  0  0  0  0  0  0  0  0  0
    3.8782  -19.9991    0.0000 C   0  0  0  0  0  0  0  0  0  0  0  0
    3.8735  -19.1770    0.0000 N   0  0  0  0  0  0  0  0  0  0  0  0
    3.1643  -18.7736    0.0000 C   0  0  0  0  0  0  0  0  0  0  0  0
    3.1600  -17.9564    0.0000 N   0  0  0  0  0  0  0  0  0  0  0  0
    3.8655  -17.5441    0.0000 C   0  0  0  0  0  0  0  0  0  0  0  0
    4.5708  -17.9523    0.0000 C   0  0  0  0  0  0  0  0  0  0  0  0
    5.2759  -17.5407    0.0000 C   0  0  0  0  0  0  0  0  0  0  0  0
    5.2720  -16.7226    0.0000 C   0  0  0  0  0  0  0  0  0  0  0  0
    4.5571  -16.3179    0.0000 C   0  0  0  0  0  0  0  0  0  0  0  0
    3.8550  -16.7319    0.0000 C   0  0  0  0  0  0  0  0  0  0  0  0
    4.5839  -20.4009    0.0000 C   0  0  0  0  0  0  0  0  0  0  0  0
    4.5858  -21.2192    0.0000 C   0  0  0  0  0  0  0  0  0  0  0  0
    5.2942  -21.6249    0.0000 C   0  0  0  0  0  0  0  0  0  0  0  0
    6.0013  -21.2135    0.0000 C   0  0  0  0  0  0  0  0  0  0  0  0
    5.9955  -20.3921    0.0000 C   0  0  0  0  0  0  0  0  0  0  0  0
    5.2865  -19.9901    0.0000 C   0  0  0  0  0  0  0  0  0  0  0  0
    6.6874  -16.7132    0.0000 F   0  0  0  0  0  0  0  0  0  0  0  0
  2  1  2  0
  3  2  2  0
  4  5  2  0
  5  6  1  0
  6  9  2  0
  8  7  2  0
  7  4  1  0
  8  9  1  0
  9 10  1  0
 10 11  2  0
 11 12  1  0
 12 13  2  0
 13  8  1  0
 13 14  1  0
 14 15  1  0
 15 16  2  0
 16 17  1  0
 17 18  2  0
 18 19  1  0
 19 20  2  0
 20 15  1  0
 21 22  2  0
 22 23  1  0
 23 24  2  0
 24 25  1  0
 25 26  2  0
 26 21  1  0
 11 21  1  0
 18  2  1  0
  2 27  1  0
M  END
>  <Curated_InChIs>  (81) 
InChI=1S/C20H14FN3O2S/c21-27(25,26)16-12-10-15(11-13-16)22-20-17-8-4-5-9-18(17)23-19(24-20)14-6-2-1-3-7-14/h1-13H,(H,22,23,24)

>  <threshold>  (81) 
5

>  <pchembl>  (81) 
6.25

>  <Classification>  (81) 
1

>  <source>  (81) 
chembl_28

>  <SMILES>  (81) 
O=S(=O)(F)c1ccc(Nc2nc(-c3ccccc3)nc3ccccc23)cc1

>  <InChIKey>  (81) 
IVJBVMSMAXPYMW-UHFFFAOYSA-N

$$$$

     RDKit          2D

 25 28  0  0  0  0  0  0  0  0999 V2000
   10.2382   -5.0104    0.0000 C   0  0  0  0  0  0  0  0  0  0  0  0
   10.2371   -5.8300    0.0000 C   0  0  0  0  0  0  0  0  0  0  0  0
   10.9451   -6.2389    0.0000 C   0  0  0  0  0  0  0  0  0  0  0  0
   10.9433   -4.6016    0.0000 C   0  0  0  0  0  0  0  0  0  0  0  0
   11.6520   -5.0068    0.0000 C   0  0  0  0  0  0  0  0  0  0  0  0
   11.6527   -5.8258    0.0000 C   0  0  0  0  0  0  0  0  0  0  0  0
   12.3613   -6.2329    0.0000 N   0  0  0  0  0  0  0  0  0  0  0  0
   13.0695   -5.8221    0.0000 C   0  0  0  0  0  0  0  0  0  0  0  0
   13.0648   -4.9999    0.0000 N   0  0  0  0  0  0  0  0  0  0  0  0
   12.3557   -4.5966    0.0000 C   0  0  0  0  0  0  0  0  0  0  0  0
   13.7830   -6.2251    0.0000 C   0  0  0  0  0  0  0  0  0  0  0  0
   13.8716   -7.0374    0.0000 C   0  0  0  0  0  0  0  0  0  0  0  0
   14.6716   -7.2042    0.0000 C   0  0  0  0  0  0  0  0  0  0  0  0
   15.0774   -6.4949    0.0000 C   0  0  0  0  0  0  0  0  0  0  0  0
   14.5282   -5.8898    0.0000 S   0  0  0  0  0  0  0  0  0  0  0  0
   12.3513   -3.7794    0.0000 N   0  0  0  0  0  0  0  0  0  0  0  0
   13.0569   -3.3671    0.0000 C   0  0  0  0  0  0  0  0  0  0  0  0
   13.7622   -3.7753    0.0000 C   0  0  0  0  0  0  0  0  0  0  0  0
   14.4672   -3.3636    0.0000 C   0  0  0  0  0  0  0  0  0  0  0  0
   14.4633   -2.5456    0.0000 C   0  0  0  0  0  0  0  0  0  0  0  0
   13.7485   -2.1409    0.0000 C   0  0  0  0  0  0  0  0  0  0  0  0
   13.0464   -2.5549    0.0000 C   0  0  0  0  0  0  0  0  0  0  0  0
   15.1712   -2.1314    0.0000 N   0  0  0  0  0  0  0  0  0  0  0  0
   15.1658   -1.3143    0.0000 O   0  0  0  0  0  0  0  0  0  0  0  0
   15.8816   -2.5353    0.0000 O   0  0  0  0  0  0  0  0  0  0  0  0
  1  2  2  0
  2  3  1  0
  3  6  2  0
  5  4  2  0
  4  1  1  0
  5  6  1  0
  6  7  1  0
  7  8  2  0
  8  9  1  0
  9 10  2  0
 10  5  1  0
 11 12  2  0
 12 13  1  0
 13 14  2  0
 14 15  1  0
 15 11  1  0
  8 11  1  0
 10 16  1  0
 16 17  1  0
 17 18  2  0
 18 19  1  0
 19 20  2  0
 20 21  1  0
 21 22  2  0
 22 17  1  0
 23 24  2  0
 23 25  1  0
 20 23  1  0
M  CHG  2  23   1  25  -1
M  END
>  <Curated_InChIs>  (82) 
InChI=1S/C18H12N4O2S/c23-22(24)13-9-7-12(8-10-13)19-17-14-4-1-2-5-15(14)20-18(21-17)16-6-3-11-25-16/h1-11H,(H,19,20,21)

>  <threshold>  (82) 
5

>  <pchembl>  (82) 
6.47

>  <Classification>  (82) 
1

>  <source>  (82) 
chembl_28

>  <SMILES>  (82) 
O=[N+]([O-])c1ccc(Nc2nc(-c3cccs3)nc3ccccc23)cc1

>  <InChIKey>  (82) 
IVPJYLXYKGIRPC-UHFFFAOYSA-N

$$$$

     RDKit          2D

 35 37  0  0  0  0  0  0  0  0999 V2000
   33.1499  -19.3402    0.0000 C   0  0  0  0  0  0  0  0  0  0  0  0
   33.1540  -20.1656    0.0000 C   0  0  0  0  0  0  0  0  0  0  0  0
   33.8598  -18.9316    0.0000 C   0  0  0  0  0  0  0  0  0  0  0  0
   34.5655  -19.3402    0.0000 C   0  0  0  0  0  0  0  0  0  0  0  0
   34.5655  -20.1656    0.0000 C   0  0  0  0  0  0  0  0  0  0  0  0
   33.8598  -20.5742    0.0000 C   0  0  0  0  0  0  0  0  0  0  0  0
   35.2735  -20.5738    0.0000 N   0  0  0  0  0  0  0  0  0  0  0  0
   35.9810  -20.1648    0.0000 C   0  0  0  0  0  0  0  0  0  0  0  0
   36.6889  -20.5730    0.0000 C   0  0  0  0  0  0  0  0  0  0  0  0
   35.9805  -19.3476    0.0000 O   0  0  0  0  0  0  0  0  0  0  0  0
   37.3964  -20.1639    0.0000 O   0  0  0  0  0  0  0  0  0  0  0  0
   38.1043  -20.5721    0.0000 C   0  0  0  0  0  0  0  0  0  0  0  0
   38.1003  -21.3884    0.0000 C   0  0  0  0  0  0  0  0  0  0  0  0
   38.8074  -21.7965    0.0000 C   0  0  0  0  0  0  0  0  0  0  0  0
   39.5159  -21.3874    0.0000 C   0  0  0  0  0  0  0  0  0  0  0  0
   39.5128  -20.5660    0.0000 C   0  0  0  0  0  0  0  0  0  0  0  0
   38.8051  -20.1616    0.0000 C   0  0  0  0  0  0  0  0  0  0  0  0
   40.2188  -20.1545    0.0000 C   0  0  0  0  0  0  0  0  0  0  0  0
   40.9282  -20.5601    0.0000 C   0  0  0  0  0  0  0  0  0  0  0  0
   40.2154  -19.3373    0.0000 O   0  0  0  0  0  0  0  0  0  0  0  0
   41.6342  -20.1486    0.0000 C   0  0  0  0  0  0  0  0  0  0  0  0
   42.3436  -20.5543    0.0000 C   0  0  0  0  0  0  0  0  0  0  0  0
   42.3419  -21.3719    0.0000 C   0  0  0  0  0  0  0  0  0  0  0  0
   43.0504  -21.7775    0.0000 C   0  0  0  0  0  0  0  0  0  0  0  0
   43.7574  -21.3659    0.0000 C   0  0  0  0  0  0  0  0  0  0  0  0
   43.7514  -20.5445    0.0000 C   0  0  0  0  0  0  0  0  0  0  0  0
   43.0423  -20.1426    0.0000 C   0  0  0  0  0  0  0  0  0  0  0  0
   32.4471  -20.5756    0.0000 O   0  0  0  0  0  0  0  0  0  0  0  0
   32.4414  -18.9329    0.0000 O   0  0  0  0  0  0  0  0  0  0  0  0
   32.4399  -18.1157    0.0000 C   0  0  0  0  0  0  0  0  0  0  0  0
   31.7386  -20.1683    0.0000 C   0  0  0  0  0  0  0  0  0  0  0  0
   44.4560  -20.1305    0.0000 O   0  0  0  0  0  0  0  0  0  0  0  0
   44.4673  -21.7706    0.0000 O   0  0  0  0  0  0  0  0  0  0  0  0
   44.4718  -22.5878    0.0000 C   0  0  0  0  0  0  0  0  0  0  0  0
   45.1668  -20.5337    0.0000 C   0  0  0  0  0  0  0  0  0  0  0  0
  2  1  2  0
  3  1  1  0
  4  3  2  0
  5  4  1  0
  6  2  1  0
  6  5  2  0
  5  7  1  0
  7  8  1  0
  8  9  1  0
  8 10  2  0
  9 11  1  0
 11 12  1  0
 12 13  2  0
 13 14  1  0
 14 15  2  0
 15 16  1  0
 16 17  2  0
 17 12  1  0
 16 18  1  0
 18 19  1  0
 18 20  2  0
 19 21  2  0
 21 22  1  0
 22 23  2  0
 23 24  1  0
 24 25  2  0
 25 26  1  0
 26 27  2  0
 27 22  1  0
  2 28  1  0
  1 29  1  0
 29 30  1  0
 28 31  1  0
 26 32  1  0
 25 33  1  0
 33 34  1  0
 32 35  1  0
M  END
>  <Curated_InChIs>  (83) 
InChI=1S/C27H27NO7/c1-31-23-12-9-18(14-25(23)33-3)8-11-22(29)19-6-5-7-21(15-19)35-17-27(30)28-20-10-13-24(32-2)26(16-20)34-4/h5-16H,17H2,1-4H3,(H,28,30)

>  <threshold>  (83) 
5

>  <pchembl>  (83) 
5.2

>  <Classification>  (83) 
1

>  <source>  (83) 
chembl_28

>  <SMILES>  (83) 
COc1ccc(/C=C/C(=O)c2cccc(OCC(=O)Nc3ccc(OC)c(OC)c3)c2)cc1OC

>  <InChIKey>  (83) 
JAJXWFZEYYQEDN-DHZHZOJOSA-N

$$$$

     RDKit          2D

 29 33  0  0  0  0  0  0  0  0999 V2000
   12.9044  -19.9303    0.0000 C   0  0  0  0  0  0  0  0  0  0  0  0
   12.9033  -20.7499    0.0000 C   0  0  0  0  0  0  0  0  0  0  0  0
   13.6113  -21.1589    0.0000 C   0  0  0  0  0  0  0  0  0  0  0  0
   13.6095  -19.5215    0.0000 C   0  0  0  0  0  0  0  0  0  0  0  0
   14.3182  -19.9267    0.0000 C   0  0  0  0  0  0  0  0  0  0  0  0
   14.3184  -20.7499    0.0000 C   0  0  0  0  0  0  0  0  0  0  0  0
   15.1014  -21.0041    0.0000 N   0  0  0  0  0  0  0  0  0  0  0  0
   15.1010  -19.6722    0.0000 C   0  0  0  0  0  0  0  0  0  0  0  0
   15.5852  -20.3393    0.0000 C   0  0  0  0  0  0  0  0  0  0  0  0
   16.4005  -20.2540    0.0000 C   0  0  0  0  0  0  0  0  0  0  0  0
   16.7379  -19.5026    0.0000 N   0  0  0  0  0  0  0  0  0  0  0  0
   16.2537  -18.8355    0.0000 C   0  0  0  0  0  0  0  0  0  0  0  0
   15.4321  -18.9198    0.0000 C   0  0  0  0  0  0  0  0  0  0  0  0
   17.5508  -19.4187    0.0000 C   0  0  0  0  0  0  0  0  0  0  0  0
   18.0299  -20.0808    0.0000 O   0  0  0  0  0  0  0  0  0  0  0  0
   17.8846  -18.6728    0.0000 C   0  0  0  0  0  0  0  0  0  0  0  0
   18.6977  -18.5930    0.0000 C   0  0  0  0  0  0  0  0  0  0  0  0
   19.0315  -17.8479    0.0000 C   0  0  0  0  0  0  0  0  0  0  0  0
   18.5522  -17.1849    0.0000 C   0  0  0  0  0  0  0  0  0  0  0  0
   17.7354  -17.2719    0.0000 C   0  0  0  0  0  0  0  0  0  0  0  0
   17.4054  -18.0171    0.0000 C   0  0  0  0  0  0  0  0  0  0  0  0
   16.8804  -20.9127    0.0000 C   0  0  0  0  0  0  0  0  0  0  0  0
   16.5449  -21.6591    0.0000 C   0  0  0  0  0  0  0  0  0  0  0  0
   17.0233  -22.3207    0.0000 C   0  0  0  0  0  0  0  0  0  0  0  0
   17.8371  -22.2371    0.0000 C   0  0  0  0  0  0  0  0  0  0  0  0
   18.1702  -21.4863    0.0000 C   0  0  0  0  0  0  0  0  0  0  0  0
   17.6898  -20.8278    0.0000 C   0  0  0  0  0  0  0  0  0  0  0  0
   18.9805  -21.3954    0.0000 C   0  0  0  0  0  0  0  0  0  0  0  0
   19.7931  -21.3086    0.0000 N   0  0  0  0  0  0  0  0  0  0  0  0
  1  2  2  0
  2  3  1  0
  3  6  2  0
  5  4  2  0
  4  1  1  0
  5  6  1  0
  6  7  1  0
  7  9  1  0
  8  5  1  0
  8  9  2  0
  8 13  1  0
  9 10  1  0
 10 11  1  0
 11 12  1  0
 12 13  1  0
 11 14  1  0
 14 15  2  0
 14 16  1  0
 16 17  2  0
 17 18  1  0
 18 19  2  0
 19 20  1  0
 20 21  2  0
 21 16  1  0
 22 23  2  0
 23 24  1  0
 24 25  2  0
 25 26  1  0
 26 27  2  0
 27 22  1  0
 10 22  1  0
 28 29  3  0
 26 28  1  0
M  END
>  <Curated_InChIs>  (84) 
InChI=1S/C25H19N3O/c26-16-17-7-6-10-19(15-17)24-23-21(20-11-4-5-12-22(20)27-23)13-14-28(24)25(29)18-8-2-1-3-9-18/h1-12,15,24,27H,13-14H2

>  <threshold>  (84) 
5

>  <pchembl>  (84) 
5.7

>  <Classification>  (84) 
1

>  <source>  (84) 
chembl_28

>  <SMILES>  (84) 
N#Cc1cccc(C2c3[nH]c4ccccc4c3CCN2C(=O)c2ccccc2)c1

>  <InChIKey>  (84) 
JFYIGAAQIDTDQO-UHFFFAOYSA-N

$$$$

     RDKit          2D

 31 34  0  0  0  0  0  0  0  0999 V2000
   10.4295   -9.5250    0.0000 C   0  0  0  0  0  0  0  0  0  0  0  0
    9.6123   -9.5250    0.0000 C   0  0  0  0  0  0  0  0  0  0  0  0
    9.2037  -10.2341    0.0000 C   0  0  0  0  0  0  0  0  0  0  0  0
    8.3865  -10.2341    0.0000 C   0  0  0  0  0  0  0  0  0  0  0  0
    7.9779   -9.5250    0.0000 C   0  0  0  0  0  0  0  0  0  0  0  0
    8.3865   -8.8159    0.0000 C   0  0  0  0  0  0  0  0  0  0  0  0
    9.2037   -8.8159    0.0000 C   0  0  0  0  0  0  0  0  0  0  0  0
   10.8381   -8.8159    0.0000 O   0  0  0  0  0  0  0  0  0  0  0  0
   10.8381  -10.2341    0.0000 N   0  0  0  0  0  0  0  0  0  0  0  0
    7.9779  -10.9390    0.0000 N   0  0  0  0  0  0  0  0  0  0  0  0
    8.3865  -11.6481    0.0000 O   0  0  0  0  0  0  0  0  0  0  0  0
    7.1607  -10.9390    0.0000 O   0  0  0  0  0  0  0  0  0  0  0  0
   10.4295  -10.9390    0.0000 C   0  0  0  0  0  0  0  0  0  0  0  0
   10.8381  -11.6481    0.0000 C   0  0  0  0  0  0  0  0  0  0  0  0
   10.4295  -12.3572    0.0000 C   0  0  0  0  0  0  0  0  0  0  0  0
    9.6123  -12.3572    0.0000 C   0  0  0  0  0  0  0  0  0  0  0  0
    9.2037  -11.6481    0.0000 C   0  0  0  0  0  0  0  0  0  0  0  0
    9.6123  -10.9390    0.0000 C   0  0  0  0  0  0  0  0  0  0  0  0
   12.1354  -10.9890    0.0000 N   0  0  0  0  0  0  0  0  0  0  0  0
   12.9126  -11.2395    0.0000 N   0  0  0  0  0  0  0  0  0  0  0  0
   12.9126  -12.0567    0.0000 N   0  0  0  0  0  0  0  0  0  0  0  0
   12.1354  -12.3114    0.0000 N   0  0  0  0  0  0  0  0  0  0  0  0
   11.6553  -11.6481    0.0000 C   0  0  0  0  0  0  0  0  0  0  0  0
   13.5718  -10.7594    0.0000 C   0  0  0  0  0  0  0  0  0  0  0  0
   13.4878   -9.9490    0.0000 C   0  0  0  0  0  0  0  0  0  0  0  0
   14.1469   -9.4647    0.0000 C   0  0  0  0  0  0  0  0  0  0  0  0
   14.8942   -9.7991    0.0000 C   0  0  0  0  0  0  0  0  0  0  0  0
   14.9782  -10.6136    0.0000 C   0  0  0  0  0  0  0  0  0  0  0  0
   14.3191  -11.0938    0.0000 C   0  0  0  0  0  0  0  0  0  0  0  0
   15.5575   -9.3190    0.0000 O   0  0  0  0  0  0  0  0  0  0  0  0
   16.3006   -9.6533    0.0000 C   0  0  0  0  0  0  0  0  0  0  0  0
  1  2  1  0
  2  3  2  0
  3  4  1  0
  4  5  2  0
  5  6  1  0
  6  7  2  0
  2  7  1  0
  1  8  2  0
  1  9  1  0
 10 11  2  0
 10 12  1  0
  4 10  1  0
 13 14  1  0
 14 15  2  0
 15 16  1  0
 16 17  2  0
 17 18  1  0
 13 18  2  0
 19 20  1  0
 20 21  1  0
 21 22  2  0
 22 23  1  0
 19 23  2  0
 24 25  2  0
 25 26  1  0
 26 27  2  0
 27 28  1  0
 28 29  2  0
 24 29  1  0
 30 31  1  0
 27 30  1  0
 20 24  1  0
 14 23  1  0
  9 13  1  0
M  CHG  2  10   1  12  -1
M  END
>  <Curated_InChIs>  (85) 
InChI=1S/C21H16N6O4/c1-31-17-11-9-15(10-12-17)26-24-20(23-25-26)18-7-2-3-8-19(18)22-21(28)14-5-4-6-16(13-14)27(29)30/h2-13H,1H3,(H,22,28)

>  <threshold>  (85) 
5

>  <pchembl>  (85) 
6.78, 6.61

>  <Classification>  (85) 
1

>  <source>  (85) 
chembl_28

>  <SMILES>  (85) 
COc1ccc(-n2nnc(-c3ccccc3NC(=O)c3cccc([N+](=O)[O-])c3)n2)cc1

>  <InChIKey>  (85) 
JGHJCDQUKDDVKV-UHFFFAOYSA-N

$$$$

     RDKit          2D

 83 92  0  0  0  0  0  0  0  0999 V2000
    5.3366  -12.3811    0.0000 C   0  0  0  0  0  0  0  0  0  0  0  0
    6.0446  -11.9738    0.0000 C   0  0  0  0  0  0  0  0  0  0  0  0
    6.7488  -12.3805    0.0000 C   0  0  0  0  0  0  0  0  0  0  0  0
    6.7488  -13.1999    0.0000 C   0  0  0  0  0  0  0  0  0  0  0  0
    6.0472  -13.6106    0.0000 C   0  0  0  0  0  0  0  0  0  0  0  0
    5.3366  -13.2052    0.0000 C   0  0  0  0  0  0  0  0  0  0  0  0
    7.4610  -13.6076    0.0000 O   0  0  0  0  0  0  0  0  0  0  0  0
    8.1691  -13.2000    0.0000 C   0  0  0  0  0  0  0  0  0  0  0  0
    8.1691  -12.3805    0.0000 C   0  0  0  0  0  0  0  0  0  0  0  0
    7.4610  -11.9729    0.0000 C   0  0  0  0  0  0  0  0  0  0  0  0
    7.4610  -11.1534    0.0000 O   0  0  0  0  0  0  0  0  0  0  0  0
    8.8771  -11.9729    0.0000 O   0  0  0  0  0  0  0  0  0  0  0  0
    9.5852  -12.3805    0.0000 C   0  0  0  0  0  0  0  0  0  0  0  0
   10.2974  -11.9729    0.0000 C   0  0  0  0  0  0  0  0  0  0  0  0
   10.2977  -11.1533    0.0000 C   0  0  0  0  0  0  0  0  0  0  0  0
   11.0033  -10.7443    0.0000 C   0  0  0  0  0  0  0  0  0  0  0  0
   11.7117  -11.1562    0.0000 C   0  0  0  0  0  0  0  0  0  0  0  0
   11.7139  -11.9699    0.0000 C   0  0  0  0  0  0  0  0  0  0  0  0
   11.0098  -12.3831    0.0000 C   0  0  0  0  0  0  0  0  0  0  0  0
   12.4220  -12.3775    0.0000 C   0  0  0  0  0  0  0  0  0  0  0  0
   13.1342  -11.9699    0.0000 O   0  0  0  0  0  0  0  0  0  0  0  0
   13.8423  -12.3775    0.0000 C   0  0  0  0  0  0  0  0  0  0  0  0
   12.4220  -13.1970    0.0000 O   0  0  0  0  0  0  0  0  0  0  0  0
    8.8771  -13.6077    0.0000 C   0  0  0  0  0  0  0  0  0  0  0  0
    9.5854  -13.2003    0.0000 C   0  0  0  0  0  0  0  0  0  0  0  0
   10.2941  -13.6112    0.0000 C   0  0  0  0  0  0  0  0  0  0  0  0
   10.2941  -14.4269    0.0000 C   0  0  0  0  0  0  0  0  0  0  0  0
    9.5880  -14.8377    0.0000 C   0  0  0  0  0  0  0  0  0  0  0  0
    8.8771  -14.4321    0.0000 C   0  0  0  0  0  0  0  0  0  0  0  0
   11.0021  -14.8387    0.0000 O   0  0  0  0  0  0  0  0  0  0  0  0
   11.7102  -14.4269    0.0000 C   0  0  0  0  0  0  0  0  0  0  0  0
   12.4224  -14.8387    0.0000 C   0  0  0  0  0  0  0  0  0  0  0  0
   13.1305  -14.4269    0.0000 O   0  0  0  0  0  0  0  0  0  0  0  0
   13.8385  -14.8387    0.0000 C   0  0  0  0  0  0  0  0  0  0  0  0
   14.5466  -14.4269    0.0000 C   0  0  0  0  0  0  0  0  0  0  0  0
   15.2588  -14.8387    0.0000 N   0  0  0  0  0  0  0  0  0  0  0  0
   16.0054  -14.5033    0.0000 C   0  0  0  0  0  0  0  0  0  0  0  0
   16.5529  -15.1125    0.0000 C   0  0  0  0  0  0  0  0  0  0  0  0
   16.1455  -15.8201    0.0000 N   0  0  0  0  0  0  0  0  0  0  0  0
   15.3439  -15.6511    0.0000 N   0  0  0  0  0  0  0  0  0  0  0  0
   17.3724  -15.1125    0.0000 C   0  0  0  0  0  0  0  0  0  0  0  0
   17.7800  -14.4044    0.0000 C   0  0  0  0  0  0  0  0  0  0  0  0
   18.5995  -14.4044    0.0000 C   0  0  0  0  0  0  0  0  0  0  0  0
   19.0072  -13.6964    0.0000 C   0  0  0  0  0  0  0  0  0  0  0  0
   18.5145  -13.0413    0.0000 N   0  0  0  0  0  0  0  0  0  0  0  0
   18.9797  -12.3696    0.0000 N   0  0  0  0  0  0  0  0  0  0  0  0
   19.7652  -12.6085    0.0000 N   0  0  0  0  0  0  0  0  0  0  0  0
   19.7815  -13.4231    0.0000 C   0  0  0  0  0  0  0  0  0  0  0  0
   20.3624  -12.0467    0.0000 C   0  0  0  0  0  0  0  0  0  0  0  0
   21.1443  -12.2817    0.0000 C   0  0  0  0  0  0  0  0  0  0  0  0
   21.7414  -11.7240    0.0000 O   0  0  0  0  0  0  0  0  0  0  0  0
   22.5275  -11.9590    0.0000 C   0  0  0  0  0  0  0  0  0  0  0  0
   23.1246  -11.3972    0.0000 C   0  0  0  0  0  0  0  0  0  0  0  0
   23.9065  -11.6363    0.0000 O   0  0  0  0  0  0  0  0  0  0  0  0
   24.5037  -11.0745    0.0000 C   0  0  0  0  0  0  0  0  0  0  0  0
   24.3151  -10.2775    0.0000 C   0  0  0  0  0  0  0  0  0  0  0  0
   24.9104   -9.7189    0.0000 C   0  0  0  0  0  0  0  0  0  0  0  0
   25.6967   -9.9540    0.0000 C   0  0  0  0  0  0  0  0  0  0  0  0
   25.8824  -10.7487    0.0000 C   0  0  0  0  0  0  0  0  0  0  0  0
   25.2904  -11.3109    0.0000 C   0  0  0  0  0  0  0  0  0  0  0  0
   26.2939   -9.3963    0.0000 C   0  0  0  0  0  0  0  0  0  0  0  0
   26.1050   -8.5996    0.0000 C   0  0  0  0  0  0  0  0  0  0  0  0
   26.7021   -8.0378    0.0000 C   0  0  0  0  0  0  0  0  0  0  0  0
   27.4881   -8.2728    0.0000 C   0  0  0  0  0  0  0  0  0  0  0  0
   27.6729   -9.0695    0.0000 C   0  0  0  0  0  0  0  0  0  0  0  0
   27.0758   -9.6313    0.0000 O   0  0  0  0  0  0  0  0  0  0  0  0
   28.4597   -9.3097    0.0000 C   0  0  0  0  0  0  0  0  0  0  0  0
   29.0555   -8.7433    0.0000 C   0  0  0  0  0  0  0  0  0  0  0  0
   28.8654   -7.9528    0.0000 C   0  0  0  0  0  0  0  0  0  0  0  0
   28.0831   -7.7140    0.0000 C   0  0  0  0  0  0  0  0  0  0  0  0
   26.5173   -7.2411    0.0000 O   0  0  0  0  0  0  0  0  0  0  0  0
   25.3230   -8.3605    0.0000 O   0  0  0  0  0  0  0  0  0  0  0  0
   24.7259   -8.9223    0.0000 C   0  0  0  0  0  0  0  0  0  0  0  0
   23.9399   -8.6873    0.0000 C   0  0  0  0  0  0  0  0  0  0  0  0
   23.3466   -9.2448    0.0000 C   0  0  0  0  0  0  0  0  0  0  0  0
   22.5642   -9.0098    0.0000 C   0  0  0  0  0  0  0  0  0  0  0  0
   22.3752   -8.2127    0.0000 C   0  0  0  0  0  0  0  0  0  0  0  0
   22.9707   -7.6533    0.0000 C   0  0  0  0  0  0  0  0  0  0  0  0
   23.7539   -7.8857    0.0000 C   0  0  0  0  0  0  0  0  0  0  0  0
   21.9671   -9.5675    0.0000 C   0  0  0  0  0  0  0  0  0  0  0  0
   22.1519  -10.3684    0.0000 O   0  0  0  0  0  0  0  0  0  0  0  0
   21.1810   -9.3325    0.0000 O   0  0  0  0  0  0  0  0  0  0  0  0
   20.5839   -9.8943    0.0000 C   0  0  0  0  0  0  0  0  0  0  0  0
  2  1  2  0
  3  2  1  0
  4  3  2  0
  5  4  1  0
  6  5  2  0
  1  6  1  0
  4  7  1  0
  7  8  1  0
  8  9  2  0
  9 10  1  0
  3 10  1  0
 10 11  2  0
  9 12  1  0
 12 13  1  0
 13 14  1  0
 15 14  2  0
 16 15  1  0
 17 16  2  0
 18 17  1  0
 19 18  2  0
 14 19  1  0
 18 20  1  0
 20 21  1  0
 21 22  1  0
 20 23  2  0
 24  8  1  0
 25 24  2  0
 26 25  1  0
 27 26  2  0
 28 27  1  0
 29 28  2  0
 24 29  1  0
 27 30  1  0
 30 31  1  0
 31 32  1  0
 32 33  1  0
 33 34  1  0
 34 35  1  0
 35 36  1  0
 37 36  1  0
 37 38  2  0
 38 39  1  0
 39 40  2  0
 40 36  1  0
 38 41  1  0
 41 42  1  0
 42 43  1  0
 43 44  1  0
 44 45  1  0
 45 46  2  0
 46 47  1  0
 47 48  1  0
 48 44  2  0
 47 49  1  0
 49 50  1  0
 50 51  1  0
 51 52  1  0
 52 53  1  0
 53 54  1  0
 54 55  1  0
 56 55  2  0
 57 56  1  0
 58 57  2  0
 59 58  1  0
 60 59  2  0
 55 60  1  0
 61 58  1  0
 61 62  2  0
 63 62  1  0
 64 63  1  0
 65 64  2  0
 66 65  1  0
 61 66  1  0
 65 67  1  0
 67 68  2  0
 68 69  1  0
 69 70  2  0
 64 70  1  0
 63 71  2  0
 62 72  1  0
 72 73  1  0
 73 74  1  0
 75 74  2  0
 76 75  1  0
 77 76  2  0
 78 77  1  0
 79 78  2  0
 74 79  1  0
 76 80  1  0
 80 81  2  0
 80 82  1  0
 82 83  1  0
M  END
>  <Curated_InChIs>  (86) 
InChI=1S/C63H58N6O14/c1-74-62(72)46-12-7-10-42(36-46)40-80-60-56(70)52-16-3-5-18-54(52)82-58(60)44-20-24-50(25-21-44)78-34-32-76-30-28-68-38-48(64-66-68)14-9-15-49-39-69(67-65-49)29-31-77-33-35-79-51-26-22-45(23-27-51)59-61(57(71)53-17-4-6-19-55(53)83-59)81-41-43-11-8-13-47(37-43)63(73)75-2/h3-8,10-13,16-27,36-39H,9,14-15,28-35,40-41H2,1-2H3

>  <threshold>  (86) 
5

>  <pchembl>  (86) 
7.72

>  <Classification>  (86) 
1

>  <source>  (86) 
chembl_28

>  <SMILES>  (86) 
COC(=O)c1cccc(COc2c(-c3ccc(OCCOCCn4cc(CCCc5cn(CCOCCOc6ccc(-c7oc8ccccc8c(=O)c7OCc7cccc(C(=O)OC)c7)cc6)nn5)nn4)cc3)oc3ccccc3c2=O)c1

>  <InChIKey>  (86) 
JLFGWDKWMKUEHB-UHFFFAOYSA-N

$$$$

     RDKit          2D

 31 34  0  0  0  0  0  0  0  0999 V2000
   19.3650  -26.5216    0.0000 C   0  0  0  0  0  0  0  0  0  0  0  0
   19.3691  -27.3470    0.0000 C   0  0  0  0  0  0  0  0  0  0  0  0
   20.0748  -26.1130    0.0000 C   0  0  0  0  0  0  0  0  0  0  0  0
   20.7806  -26.5216    0.0000 C   0  0  0  0  0  0  0  0  0  0  0  0
   20.7806  -27.3470    0.0000 C   0  0  0  0  0  0  0  0  0  0  0  0
   20.0748  -27.7556    0.0000 C   0  0  0  0  0  0  0  0  0  0  0  0
   18.5767  -26.2739    0.0000 C   0  0  0  0  0  0  0  0  0  0  0  0
   18.0938  -26.9425    0.0000 O   0  0  0  0  0  0  0  0  0  0  0  0
   18.5890  -27.5988    0.0000 C   0  0  0  0  0  0  0  0  0  0  0  0
   18.3290  -25.4939    0.0000 O   0  0  0  0  0  0  0  0  0  0  0  0
   21.4885  -27.7552    0.0000 N   0  0  0  0  0  0  0  0  0  0  0  0
   22.1960  -27.3462    0.0000 C   0  0  0  0  0  0  0  0  0  0  0  0
   22.9040  -27.7543    0.0000 C   0  0  0  0  0  0  0  0  0  0  0  0
   22.1955  -26.5290    0.0000 O   0  0  0  0  0  0  0  0  0  0  0  0
   23.6114  -27.3453    0.0000 O   0  0  0  0  0  0  0  0  0  0  0  0
   24.3194  -27.7535    0.0000 C   0  0  0  0  0  0  0  0  0  0  0  0
   24.3154  -28.5697    0.0000 C   0  0  0  0  0  0  0  0  0  0  0  0
   25.0225  -28.9778    0.0000 C   0  0  0  0  0  0  0  0  0  0  0  0
   25.7309  -28.5688    0.0000 C   0  0  0  0  0  0  0  0  0  0  0  0
   25.7278  -27.7473    0.0000 C   0  0  0  0  0  0  0  0  0  0  0  0
   25.0201  -27.3430    0.0000 C   0  0  0  0  0  0  0  0  0  0  0  0
   26.4338  -27.3358    0.0000 C   0  0  0  0  0  0  0  0  0  0  0  0
   27.1432  -27.7415    0.0000 C   0  0  0  0  0  0  0  0  0  0  0  0
   26.4305  -26.5187    0.0000 O   0  0  0  0  0  0  0  0  0  0  0  0
   27.8492  -27.3300    0.0000 C   0  0  0  0  0  0  0  0  0  0  0  0
   28.5586  -27.7357    0.0000 C   0  0  0  0  0  0  0  0  0  0  0  0
   28.5569  -28.5532    0.0000 C   0  0  0  0  0  0  0  0  0  0  0  0
   29.2655  -28.9588    0.0000 C   0  0  0  0  0  0  0  0  0  0  0  0
   29.9725  -28.5473    0.0000 C   0  0  0  0  0  0  0  0  0  0  0  0
   29.9664  -27.7259    0.0000 C   0  0  0  0  0  0  0  0  0  0  0  0
   29.2573  -27.3240    0.0000 C   0  0  0  0  0  0  0  0  0  0  0  0
  2  1  1  0
  3  1  2  0
  4  3  1  0
  5  4  2  0
  6  2  2  0
  7  1  1  0
  8  7  1  0
  9  2  1  0
 10  7  2  0
  8  9  1  0
  6  5  1  0
  5 11  1  0
 11 12  1  0
 12 13  1  0
 12 14  2  0
 13 15  1  0
 15 16  1  0
 16 17  2  0
 17 18  1  0
 18 19  2  0
 19 20  1  0
 20 21  2  0
 21 16  1  0
 20 22  1  0
 22 23  1  0
 22 24  2  0
 23 25  2  0
 25 26  1  0
 26 27  2  0
 27 28  1  0
 28 29  2  0
 29 30  1  0
 30 31  2  0
 31 26  1  0
M  END
>  <Curated_InChIs>  (87) 
InChI=1S/C25H19NO5/c27-23(12-9-17-5-2-1-3-6-17)18-7-4-8-21(14-18)30-16-24(28)26-20-10-11-22-19(13-20)15-31-25(22)29/h1-14H,15-16H2,(H,26,28)

>  <threshold>  (87) 
5

>  <pchembl>  (87) 
5.22

>  <Classification>  (87) 
1

>  <source>  (87) 
chembl_28

>  <SMILES>  (87) 
O=C(COc1cccc(C(=O)/C=C/c2ccccc2)c1)Nc1ccc2c(c1)COC2=O

>  <InChIKey>  (87) 
JUMOSJFJWDXNTR-FMIVXFBMSA-N

$$$$

     RDKit          2D

 30 34  0  0  0  0  0  0  0  0999 V2000
   13.6597  -18.0442    0.0000 C   0  0  0  0  0  0  0  0  0  0  0  0
   13.6586  -18.8637    0.0000 C   0  0  0  0  0  0  0  0  0  0  0  0
   14.3666  -19.2727    0.0000 C   0  0  0  0  0  0  0  0  0  0  0  0
   14.3648  -17.6353    0.0000 C   0  0  0  0  0  0  0  0  0  0  0  0
   15.0734  -18.0406    0.0000 C   0  0  0  0  0  0  0  0  0  0  0  0
   15.0737  -18.8638    0.0000 C   0  0  0  0  0  0  0  0  0  0  0  0
   15.8567  -19.1180    0.0000 N   0  0  0  0  0  0  0  0  0  0  0  0
   15.8563  -17.7861    0.0000 C   0  0  0  0  0  0  0  0  0  0  0  0
   16.3404  -18.4532    0.0000 C   0  0  0  0  0  0  0  0  0  0  0  0
   17.1557  -18.3679    0.0000 C   0  0  0  0  0  0  0  0  0  0  0  0
   17.4932  -17.6165    0.0000 N   0  0  0  0  0  0  0  0  0  0  0  0
   17.0090  -16.9494    0.0000 C   0  0  0  0  0  0  0  0  0  0  0  0
   16.1874  -17.0337    0.0000 C   0  0  0  0  0  0  0  0  0  0  0  0
   18.3061  -17.5326    0.0000 C   0  0  0  0  0  0  0  0  0  0  0  0
   18.7852  -18.1946    0.0000 O   0  0  0  0  0  0  0  0  0  0  0  0
   18.6399  -16.7867    0.0000 C   0  0  0  0  0  0  0  0  0  0  0  0
   19.4530  -16.7068    0.0000 C   0  0  0  0  0  0  0  0  0  0  0  0
   19.7868  -15.9618    0.0000 C   0  0  0  0  0  0  0  0  0  0  0  0
   19.3075  -15.2988    0.0000 C   0  0  0  0  0  0  0  0  0  0  0  0
   18.4907  -15.3857    0.0000 C   0  0  0  0  0  0  0  0  0  0  0  0
   18.1607  -16.1310    0.0000 C   0  0  0  0  0  0  0  0  0  0  0  0
   17.6357  -19.0265    0.0000 C   0  0  0  0  0  0  0  0  0  0  0  0
   17.3002  -19.7729    0.0000 C   0  0  0  0  0  0  0  0  0  0  0  0
   17.7786  -20.4345    0.0000 C   0  0  0  0  0  0  0  0  0  0  0  0
   18.5924  -20.3510    0.0000 C   0  0  0  0  0  0  0  0  0  0  0  0
   18.9255  -19.6001    0.0000 C   0  0  0  0  0  0  0  0  0  0  0  0
   18.4451  -18.9417    0.0000 C   0  0  0  0  0  0  0  0  0  0  0  0
   19.6403  -14.5524    0.0000 Cl  0  0  0  0  0  0  0  0  0  0  0  0
   17.4445  -21.1803    0.0000 F   0  0  0  0  0  0  0  0  0  0  0  0
   19.0724  -21.0124    0.0000 F   0  0  0  0  0  0  0  0  0  0  0  0
  1  2  2  0
  2  3  1  0
  3  6  2  0
  5  4  2  0
  4  1  1  0
  5  6  1  0
  6  7  1  0
  7  9  1  0
  8  5  1  0
  8  9  2  0
  8 13  1  0
  9 10  1  0
 10 11  1  0
 11 12  1  0
 12 13  1  0
 11 14  1  0
 14 15  2  0
 14 16  1  0
 16 17  2  0
 17 18  1  0
 18 19  2  0
 19 20  1  0
 20 21  2  0
 21 16  1  0
 22 23  2  0
 23 24  1  0
 24 25  2  0
 25 26  1  0
 26 27  2  0
 27 22  1  0
 10 22  1  0
 19 28  1  0
 24 29  1  0
 25 30  1  0
M  END
>  <Curated_InChIs>  (88) 
InChI=1S/C24H17ClF2N2O/c25-16-8-5-14(6-9-16)24(30)29-12-11-18-17-3-1-2-4-21(17)28-22(18)23(29)15-7-10-19(26)20(27)13-15/h1-10,13,23,28H,11-12H2

>  <threshold>  (88) 
5

>  <pchembl>  (88) 
5.9

>  <Classification>  (88) 
1

>  <source>  (88) 
chembl_28

>  <SMILES>  (88) 
O=C(c1ccc(Cl)cc1)N1CCc2c([nH]c3ccccc23)C1c1ccc(F)c(F)c1

>  <InChIKey>  (88) 
KBMTYOXVAGVZLK-UHFFFAOYSA-N

$$$$

     RDKit          2D

 22 24  0  0  0  0  0  0  0  0999 V2000
   23.7076  -21.1484    0.0000 C   0  0  0  0  0  0  0  0  0  0  0  0
   23.7084  -21.9674    0.0000 C   0  0  0  0  0  0  0  0  0  0  0  0
   24.4169  -22.3745    0.0000 N   0  0  0  0  0  0  0  0  0  0  0  0
   25.1252  -21.9637    0.0000 C   0  0  0  0  0  0  0  0  0  0  0  0
   25.1204  -21.1415    0.0000 N   0  0  0  0  0  0  0  0  0  0  0  0
   24.4113  -20.7382    0.0000 C   0  0  0  0  0  0  0  0  0  0  0  0
   24.4070  -19.9210    0.0000 N   0  0  0  0  0  0  0  0  0  0  0  0
   25.1125  -19.5087    0.0000 C   0  0  0  0  0  0  0  0  0  0  0  0
   25.8178  -19.9169    0.0000 C   0  0  0  0  0  0  0  0  0  0  0  0
   26.5229  -19.5052    0.0000 C   0  0  0  0  0  0  0  0  0  0  0  0
   26.5190  -18.6872    0.0000 C   0  0  0  0  0  0  0  0  0  0  0  0
   25.8041  -18.2825    0.0000 C   0  0  0  0  0  0  0  0  0  0  0  0
   25.1020  -18.6965    0.0000 C   0  0  0  0  0  0  0  0  0  0  0  0
   25.8309  -22.3654    0.0000 C   0  0  0  0  0  0  0  0  0  0  0  0
   25.8327  -23.1837    0.0000 C   0  0  0  0  0  0  0  0  0  0  0  0
   26.5412  -23.5895    0.0000 C   0  0  0  0  0  0  0  0  0  0  0  0
   27.2483  -23.1781    0.0000 N   0  0  0  0  0  0  0  0  0  0  0  0
   27.2425  -22.3567    0.0000 C   0  0  0  0  0  0  0  0  0  0  0  0
   26.5334  -21.9546    0.0000 C   0  0  0  0  0  0  0  0  0  0  0  0
   23.0013  -22.3771    0.0000 C   0  0  0  0  0  0  0  0  0  0  0  0
   25.7969  -17.4654    0.0000 O   0  0  0  0  0  0  0  0  0  0  0  0
   26.5010  -17.0505    0.0000 C   0  0  0  0  0  0  0  0  0  0  0  0
  1  2  2  0
  2  3  1  0
  3  4  2  0
  4  5  1  0
  5  6  2  0
  6  1  1  0
  6  7  1  0
  7  8  1  0
  8  9  2  0
  9 10  1  0
 10 11  2  0
 11 12  1  0
 12 13  2  0
 13  8  1  0
 14 15  2  0
 15 16  1  0
 16 17  2  0
 17 18  1  0
 18 19  2  0
 19 14  1  0
  4 14  1  0
  2 20  1  0
 12 21  1  0
 21 22  1  0
M  END
>  <Curated_InChIs>  (89) 
InChI=1S/C17H16N4O/c1-12-10-16(20-14-4-3-5-15(11-14)22-2)21-17(19-12)13-6-8-18-9-7-13/h3-11H,1-2H3,(H,19,20,21)

>  <threshold>  (89) 
5

>  <pchembl>  (89) 
6.57

>  <Classification>  (89) 
1

>  <source>  (89) 
chembl_28

>  <SMILES>  (89) 
COc1cccc(Nc2cc(C)nc(-c3ccncc3)n2)c1

>  <InChIKey>  (89) 
KLAGFSAJHFLLEN-UHFFFAOYSA-N

$$$$

     RDKit          2D

 34 37  0  0  0  0  0  0  0  0999 V2000
   13.9805  -18.4262    0.0000 C   0  0  0  0  0  0  0  0  0  0  0  0
   13.9845  -19.2434    0.0000 C   0  0  0  0  0  0  0  0  0  0  0  0
   13.2715  -18.0206    0.0000 O   0  0  0  0  0  0  0  0  0  0  0  0
   14.6855  -18.0106    0.0000 N   0  0  0  0  0  0  0  0  0  0  0  0
   14.6774  -17.1934    0.0000 C   0  0  0  0  0  0  0  0  0  0  0  0
   15.3824  -16.7819    0.0000 C   0  0  0  0  0  0  0  0  0  0  0  0
   15.3784  -15.9648    0.0000 C   0  0  0  0  0  0  0  0  0  0  0  0
   14.6694  -15.5591    0.0000 C   0  0  0  0  0  0  0  0  0  0  0  0
   13.9644  -15.9747    0.0000 C   0  0  0  0  0  0  0  0  0  0  0  0
   13.9684  -16.7919    0.0000 C   0  0  0  0  0  0  0  0  0  0  0  0
   14.6613  -14.7419    0.0000 N   0  0  0  0  0  0  0  0  0  0  0  0
   15.3663  -14.3305    0.0000 C   0  0  0  0  0  0  0  0  0  0  0  0
   16.0794  -14.7320    0.0000 O   0  0  0  0  0  0  0  0  0  0  0  0
   15.3622  -13.5133    0.0000 N   0  0  0  0  0  0  0  0  0  0  0  0
   14.6532  -13.1076    0.0000 C   0  0  0  0  0  0  0  0  0  0  0  0
   14.6492  -12.2905    0.0000 C   0  0  0  0  0  0  0  0  0  0  0  0
   13.9361  -11.8889    0.0000 C   0  0  0  0  0  0  0  0  0  0  0  0
   13.2311  -12.3004    0.0000 C   0  0  0  0  0  0  0  0  0  0  0  0
   13.2392  -13.1176    0.0000 C   0  0  0  0  0  0  0  0  0  0  0  0
   13.9482  -13.5232    0.0000 C   0  0  0  0  0  0  0  0  0  0  0  0
   16.1007  -12.2059    0.0000 N   0  0  0  0  0  0  0  0  0  0  0  0
   16.6425  -11.5940    0.0000 N   0  0  0  0  0  0  0  0  0  0  0  0
   16.2310  -10.8890    0.0000 N   0  0  0  0  0  0  0  0  0  0  0  0
   15.4343  -11.0636    0.0000 N   0  0  0  0  0  0  0  0  0  0  0  0
   15.3501  -11.8790    0.0000 C   0  0  0  0  0  0  0  0  0  0  0  0
   17.4578  -11.6741    0.0000 C   0  0  0  0  0  0  0  0  0  0  0  0
   17.7955  -12.4180    0.0000 C   0  0  0  0  0  0  0  0  0  0  0  0
   18.6067  -12.4981    0.0000 C   0  0  0  0  0  0  0  0  0  0  0  0
   19.0844  -11.8342    0.0000 C   0  0  0  0  0  0  0  0  0  0  0  0
   18.7467  -11.0902    0.0000 C   0  0  0  0  0  0  0  0  0  0  0  0
   17.9314  -11.0102    0.0000 C   0  0  0  0  0  0  0  0  0  0  0  0
   18.9444  -13.2421    0.0000 O   0  0  0  0  0  0  0  0  0  0  0  0
   19.7598  -13.3221    0.0000 C   0  0  0  0  0  0  0  0  0  0  0  0
   14.6935  -19.6449    0.0000 Br  0  0  0  0  0  0  0  0  0  0  0  0
  1  2  1  0
  1  3  2  0
  1  4  1  0
  5  6  2  0
  6  7  1  0
  7  8  2  0
  8  9  1  0
  9 10  2  0
  5 10  1  0
 11 12  1  0
 12 13  2  0
 12 14  1  0
 15 16  1  0
 16 17  2  0
 17 18  1  0
 18 19  2  0
 19 20  1  0
 15 20  2  0
 21 22  1  0
 22 23  1  0
 23 24  2  0
 24 25  1  0
 21 25  2  0
 26 27  2  0
 27 28  1  0
 28 29  2  0
 29 30  1  0
 30 31  2  0
 26 31  1  0
 32 33  1  0
 28 32  1  0
 22 26  1  0
 16 25  1  0
 14 15  1  0
  8 11  1  0
  4  5  1  0
  2 34  1  0
M  END
>  <Curated_InChIs>  (90) 
InChI=1S/C23H20BrN7O3/c1-34-18-6-4-5-17(13-18)31-29-22(28-30-31)19-7-2-3-8-20(19)27-23(33)26-16-11-9-15(10-12-16)25-21(32)14-24/h2-13H,14H2,1H3,(H,25,32)(H2,26,27,33)

>  <threshold>  (90) 
5

>  <pchembl>  (90) 
6.1, 6.33, 6.23

>  <Classification>  (90) 
1

>  <source>  (90) 
chembl_28

>  <SMILES>  (90) 
COc1cccc(-n2nnc(-c3ccccc3NC(=O)Nc3ccc(NC(=O)CBr)cc3)n2)c1

>  <InChIKey>  (90) 
KMCDXXUBPYNMMR-UHFFFAOYSA-N

$$$$

     RDKit          2D

 22 24  0  0  0  0  0  0  0  0999 V2000
   33.9720   -4.5652    0.0000 C   0  0  0  0  0  0  0  0  0  0  0  0
   33.9728   -5.3842    0.0000 C   0  0  0  0  0  0  0  0  0  0  0  0
   34.6813   -5.7913    0.0000 N   0  0  0  0  0  0  0  0  0  0  0  0
   35.3896   -5.3805    0.0000 C   0  0  0  0  0  0  0  0  0  0  0  0
   35.3848   -4.5583    0.0000 N   0  0  0  0  0  0  0  0  0  0  0  0
   34.6757   -4.1550    0.0000 C   0  0  0  0  0  0  0  0  0  0  0  0
   34.6714   -3.3378    0.0000 N   0  0  0  0  0  0  0  0  0  0  0  0
   35.3769   -2.9254    0.0000 C   0  0  0  0  0  0  0  0  0  0  0  0
   36.0822   -3.3337    0.0000 C   0  0  0  0  0  0  0  0  0  0  0  0
   36.7873   -2.9220    0.0000 C   0  0  0  0  0  0  0  0  0  0  0  0
   36.7834   -2.1040    0.0000 C   0  0  0  0  0  0  0  0  0  0  0  0
   36.0685   -1.6993    0.0000 C   0  0  0  0  0  0  0  0  0  0  0  0
   35.3664   -2.1133    0.0000 C   0  0  0  0  0  0  0  0  0  0  0  0
   36.0953   -5.7822    0.0000 C   0  0  0  0  0  0  0  0  0  0  0  0
   36.0972   -6.6005    0.0000 C   0  0  0  0  0  0  0  0  0  0  0  0
   36.8056   -7.0063    0.0000 C   0  0  0  0  0  0  0  0  0  0  0  0
   37.5127   -6.5949    0.0000 N   0  0  0  0  0  0  0  0  0  0  0  0
   37.5069   -5.7735    0.0000 C   0  0  0  0  0  0  0  0  0  0  0  0
   36.7979   -5.3714    0.0000 C   0  0  0  0  0  0  0  0  0  0  0  0
   33.2657   -5.7939    0.0000 C   0  0  0  0  0  0  0  0  0  0  0  0
   37.4884   -1.6907    0.0000 O   0  0  0  0  0  0  0  0  0  0  0  0
   38.1988   -2.0946    0.0000 C   0  0  0  0  0  0  0  0  0  0  0  0
  1  2  2  0
  2  3  1  0
  3  4  2  0
  4  5  1  0
  5  6  2  0
  6  1  1  0
  6  7  1  0
  7  8  1  0
  8  9  2  0
  9 10  1  0
 10 11  2  0
 11 12  1  0
 12 13  2  0
 13  8  1  0
 14 15  2  0
 15 16  1  0
 16 17  2  0
 17 18  1  0
 18 19  2  0
 19 14  1  0
  4 14  1  0
  2 20  1  0
 11 21  1  0
 21 22  1  0
M  END
>  <Curated_InChIs>  (91) 
InChI=1S/C17H16N4O/c1-12-11-16(20-14-3-5-15(22-2)6-4-14)21-17(19-12)13-7-9-18-10-8-13/h3-11H,1-2H3,(H,19,20,21)

>  <threshold>  (91) 
5

>  <pchembl>  (91) 
6.06

>  <Classification>  (91) 
1

>  <source>  (91) 
chembl_28

>  <SMILES>  (91) 
COc1ccc(Nc2cc(C)nc(-c3ccncc3)n2)cc1

>  <InChIKey>  (91) 
KMNYPKFATHHGKO-UHFFFAOYSA-N

$$$$

     RDKit          2D

 37 40  0  0  0  0  0  0  0  0999 V2000
    4.8412   -9.6123    0.0000 C   0  0  0  0  0  0  0  0  0  0  0  0
    4.8454  -10.4378    0.0000 C   0  0  0  0  0  0  0  0  0  0  0  0
    5.5511   -9.2037    0.0000 C   0  0  0  0  0  0  0  0  0  0  0  0
    6.2569   -9.6123    0.0000 C   0  0  0  0  0  0  0  0  0  0  0  0
    6.2569  -10.4378    0.0000 C   0  0  0  0  0  0  0  0  0  0  0  0
    5.5511  -10.8464    0.0000 C   0  0  0  0  0  0  0  0  0  0  0  0
    4.0529   -9.3647    0.0000 O   0  0  0  0  0  0  0  0  0  0  0  0
    3.5701  -10.0333    0.0000 C   0  0  0  0  0  0  0  0  0  0  0  0
    4.0653  -10.6895    0.0000 O   0  0  0  0  0  0  0  0  0  0  0  0
    6.9648  -10.8459    0.0000 C   0  0  0  0  0  0  0  0  0  0  0  0
    7.6723  -10.4369    0.0000 N   0  0  0  0  0  0  0  0  0  0  0  0
    8.3802  -10.8451    0.0000 C   0  0  0  0  0  0  0  0  0  0  0  0
    9.0877  -10.4361    0.0000 C   0  0  0  0  0  0  0  0  0  0  0  0
    8.3807  -11.6623    0.0000 O   0  0  0  0  0  0  0  0  0  0  0  0
    9.7957  -10.8442    0.0000 O   0  0  0  0  0  0  0  0  0  0  0  0
   10.5031  -10.4352    0.0000 C   0  0  0  0  0  0  0  0  0  0  0  0
   11.2096  -10.8449    0.0000 C   0  0  0  0  0  0  0  0  0  0  0  0
   11.9166  -10.4366    0.0000 C   0  0  0  0  0  0  0  0  0  0  0  0
   11.9165   -9.6185    0.0000 C   0  0  0  0  0  0  0  0  0  0  0  0
   11.2036   -9.2105    0.0000 C   0  0  0  0  0  0  0  0  0  0  0  0
   10.4995   -9.6212    0.0000 C   0  0  0  0  0  0  0  0  0  0  0  0
   12.6234   -9.2086    0.0000 C   0  0  0  0  0  0  0  0  0  0  0  0
   13.3319   -9.6158    0.0000 C   0  0  0  0  0  0  0  0  0  0  0  0
   12.6219   -8.3914    0.0000 O   0  0  0  0  0  0  0  0  0  0  0  0
   14.0389   -9.2058    0.0000 C   0  0  0  0  0  0  0  0  0  0  0  0
   14.7474   -9.6131    0.0000 C   0  0  0  0  0  0  0  0  0  0  0  0
   14.7454  -10.4306    0.0000 C   0  0  0  0  0  0  0  0  0  0  0  0
   15.4531  -10.8377    0.0000 C   0  0  0  0  0  0  0  0  0  0  0  0
   16.1610  -10.4277    0.0000 C   0  0  0  0  0  0  0  0  0  0  0  0
   16.1568   -9.6063    0.0000 C   0  0  0  0  0  0  0  0  0  0  0  0
   15.4485   -9.2029    0.0000 C   0  0  0  0  0  0  0  0  0  0  0  0
   15.4543  -11.6549    0.0000 O   0  0  0  0  0  0  0  0  0  0  0  0
   16.8700  -10.8340    0.0000 O   0  0  0  0  0  0  0  0  0  0  0  0
   16.8622   -9.1939    0.0000 O   0  0  0  0  0  0  0  0  0  0  0  0
   17.5722   -9.5986    0.0000 C   0  0  0  0  0  0  0  0  0  0  0  0
   17.5764  -10.4231    0.0000 C   0  0  0  0  0  0  0  0  0  0  0  0
   16.1626  -12.0625    0.0000 C   0  0  0  0  0  0  0  0  0  0  0  0
  2  1  1  0
  3  1  2  0
  4  3  1  0
  5  4  2  0
  6  2  2  0
  7  1  1  0
  8  7  1  0
  9  2  1  0
  8  9  1  0
  6  5  1  0
  5 10  1  0
 10 11  1  0
 11 12  1  0
 12 13  1  0
 12 14  2  0
 13 15  1  0
 15 16  1  0
 16 17  2  0
 17 18  1  0
 18 19  2  0
 19 20  1  0
 20 21  2  0
 21 16  1  0
 19 22  1  0
 22 23  1  0
 22 24  2  0
 23 25  2  0
 25 26  1  0
 26 27  2  0
 27 28  1  0
 28 29  2  0
 29 30  1  0
 30 31  2  0
 31 26  1  0
 28 32  1  0
 29 33  1  0
 30 34  1  0
 34 35  1  0
 33 36  1  0
 32 37  1  0
M  END
>  <Curated_InChIs>  (92) 
InChI=1S/C28H27NO8/c1-32-25-12-18(13-26(33-2)28(25)34-3)4-10-22(30)20-6-8-21(9-7-20)35-16-27(31)29-15-19-5-11-23-24(14-19)37-17-36-23/h4-14H,15-17H2,1-3H3,(H,29,31)

>  <threshold>  (92) 
5

>  <pchembl>  (92) 
5.16

>  <Classification>  (92) 
1

>  <source>  (92) 
chembl_28

>  <SMILES>  (92) 
COc1cc(/C=C/C(=O)c2ccc(OCC(=O)NCc3ccc4c(c3)OCO4)cc2)cc(OC)c1OC

>  <InChIKey>  (92) 
KMYOAEHYUXYIDS-ONNFQVAWSA-N

$$$$

     RDKit          2D

 37 39  0  0  0  0  0  0  0  0999 V2000
    2.8891  -23.8884    0.0000 C   0  0  0  0  0  0  0  0  0  0  0  0
    2.8932  -24.7138    0.0000 C   0  0  0  0  0  0  0  0  0  0  0  0
    3.5989  -23.4798    0.0000 C   0  0  0  0  0  0  0  0  0  0  0  0
    4.3047  -23.8884    0.0000 C   0  0  0  0  0  0  0  0  0  0  0  0
    4.3047  -24.7138    0.0000 C   0  0  0  0  0  0  0  0  0  0  0  0
    3.5989  -25.1224    0.0000 C   0  0  0  0  0  0  0  0  0  0  0  0
    5.0127  -25.1220    0.0000 N   0  0  0  0  0  0  0  0  0  0  0  0
    5.7201  -24.7130    0.0000 C   0  0  0  0  0  0  0  0  0  0  0  0
    6.4281  -25.1212    0.0000 C   0  0  0  0  0  0  0  0  0  0  0  0
    5.7196  -23.8958    0.0000 O   0  0  0  0  0  0  0  0  0  0  0  0
    7.1355  -24.7122    0.0000 O   0  0  0  0  0  0  0  0  0  0  0  0
    7.8435  -25.1203    0.0000 C   0  0  0  0  0  0  0  0  0  0  0  0
    7.8395  -25.9366    0.0000 C   0  0  0  0  0  0  0  0  0  0  0  0
    8.5466  -26.3447    0.0000 C   0  0  0  0  0  0  0  0  0  0  0  0
    9.2550  -25.9356    0.0000 C   0  0  0  0  0  0  0  0  0  0  0  0
    9.2519  -25.1142    0.0000 C   0  0  0  0  0  0  0  0  0  0  0  0
    8.5442  -24.7098    0.0000 C   0  0  0  0  0  0  0  0  0  0  0  0
    9.9635  -26.3428    0.0000 C   0  0  0  0  0  0  0  0  0  0  0  0
    9.9651  -27.1600    0.0000 O   0  0  0  0  0  0  0  0  0  0  0  0
   10.6704  -25.9329    0.0000 C   0  0  0  0  0  0  0  0  0  0  0  0
   11.3789  -26.3401    0.0000 C   0  0  0  0  0  0  0  0  0  0  0  0
   12.0859  -25.9301    0.0000 C   0  0  0  0  0  0  0  0  0  0  0  0
   12.7907  -26.3400    0.0000 C   0  0  0  0  0  0  0  0  0  0  0  0
   13.4972  -25.9307    0.0000 C   0  0  0  0  0  0  0  0  0  0  0  0
   13.4960  -25.1127    0.0000 C   0  0  0  0  0  0  0  0  0  0  0  0
   12.7826  -24.7056    0.0000 C   0  0  0  0  0  0  0  0  0  0  0  0
   12.0791  -25.1172    0.0000 C   0  0  0  0  0  0  0  0  0  0  0  0
   14.2024  -24.7018    0.0000 O   0  0  0  0  0  0  0  0  0  0  0  0
   14.9115  -25.1081    0.0000 C   0  0  0  0  0  0  0  0  0  0  0  0
    2.1806  -23.4811    0.0000 O   0  0  0  0  0  0  0  0  0  0  0  0
    2.1863  -25.1238    0.0000 O   0  0  0  0  0  0  0  0  0  0  0  0
    2.1791  -22.6639    0.0000 C   0  0  0  0  0  0  0  0  0  0  0  0
    1.4778  -24.7165    0.0000 C   0  0  0  0  0  0  0  0  0  0  0  0
   14.2055  -26.3383    0.0000 O   0  0  0  0  0  0  0  0  0  0  0  0
   12.7781  -23.8884    0.0000 O   0  0  0  0  0  0  0  0  0  0  0  0
   13.4836  -23.4760    0.0000 C   0  0  0  0  0  0  0  0  0  0  0  0
   14.2067  -27.1555    0.0000 C   0  0  0  0  0  0  0  0  0  0  0  0
  2  1  2  0
  3  1  1  0
  4  3  2  0
  5  4  1  0
  6  2  1  0
  6  5  2  0
  5  7  1  0
  7  8  1  0
  8  9  1  0
  8 10  2  0
  9 11  1  0
 11 12  1  0
 12 13  2  0
 13 14  1  0
 14 15  2  0
 15 16  1  0
 16 17  2  0
 17 12  1  0
 15 18  1  0
 18 19  2  0
 18 20  1  0
 20 21  2  0
 21 22  1  0
 22 23  2  0
 23 24  1  0
 24 25  2  0
 25 26  1  0
 26 27  2  0
 27 22  1  0
 25 28  1  0
 28 29  1  0
  1 30  1  0
  2 31  1  0
 30 32  1  0
 31 33  1  0
 24 34  1  0
 26 35  1  0
 35 36  1  0
 34 37  1  0
M  END
>  <Curated_InChIs>  (93) 
InChI=1S/C28H29NO8/c1-32-23-13-9-20(16-24(23)33-2)29-27(31)17-37-21-10-7-19(8-11-21)22(30)12-6-18-14-25(34-3)28(36-5)26(15-18)35-4/h6-16H,17H2,1-5H3,(H,29,31)

>  <threshold>  (93) 
5

>  <pchembl>  (93) 
5.47

>  <Classification>  (93) 
1

>  <source>  (93) 
chembl_28

>  <SMILES>  (93) 
COc1ccc(NC(=O)COc2ccc(C(=O)/C=C/c3cc(OC)c(OC)c(OC)c3)cc2)cc1OC

>  <InChIKey>  (93) 
KRBVAHJAUKYLQU-WUXMJOGZSA-N

$$$$

     RDKit          2D

 45 50  0  0  0  0  0  0  0  0999 V2000
   17.1037   -1.1839    0.0000 C   0  0  0  0  0  0  0  0  0  0  0  0
   17.1042   -1.9983    0.0000 N   0  0  0  0  0  0  0  0  0  0  0  0
   17.8094   -2.4042    0.0000 C   0  0  0  0  0  0  0  0  0  0  0  0
   17.8071   -0.7679    0.0000 C   0  0  0  0  0  0  0  0  0  0  0  0
   18.5169   -1.1783    0.0000 C   0  0  0  0  0  0  0  0  0  0  0  0
   18.5162   -1.9959    0.0000 C   0  0  0  0  0  0  0  0  0  0  0  0
   19.2229   -2.4034    0.0000 C   0  0  0  0  0  0  0  0  0  0  0  0
   19.9306   -1.9945    0.0000 C   0  0  0  0  0  0  0  0  0  0  0  0
   19.9273   -1.1738    0.0000 C   0  0  0  0  0  0  0  0  0  0  0  0
   19.2201   -0.7699    0.0000 C   0  0  0  0  0  0  0  0  0  0  0  0
   20.6332   -0.7620    0.0000 O   0  0  0  0  0  0  0  0  0  0  0  0
   21.3427   -1.1675    0.0000 C   0  0  0  0  0  0  0  0  0  0  0  0
   20.6393   -2.4015    0.0000 O   0  0  0  0  0  0  0  0  0  0  0  0
   21.3461   -1.9914    0.0000 C   0  0  0  0  0  0  0  0  0  0  0  0
   13.5689   -2.4185    0.0000 C   0  0  0  0  0  0  0  0  0  0  0  0
   13.5678   -3.2381    0.0000 C   0  0  0  0  0  0  0  0  0  0  0  0
   14.2758   -3.6470    0.0000 C   0  0  0  0  0  0  0  0  0  0  0  0
   14.9855   -3.2376    0.0000 C   0  0  0  0  0  0  0  0  0  0  0  0
   14.9826   -2.4149    0.0000 C   0  0  0  0  0  0  0  0  0  0  0  0
   14.2740   -2.0097    0.0000 C   0  0  0  0  0  0  0  0  0  0  0  0
   15.6888   -2.0037    0.0000 C   0  0  0  0  0  0  0  0  0  0  0  0
   12.8616   -3.6464    0.0000 C   0  0  0  0  0  0  0  0  0  0  0  0
   12.1540   -3.2355    0.0000 C   0  0  0  0  0  0  0  0  0  0  0  0
   11.4464   -3.6429    0.0000 C   0  0  0  0  0  0  0  0  0  0  0  0
   11.4453   -4.4609    0.0000 C   0  0  0  0  0  0  0  0  0  0  0  0
   12.1577   -4.8699    0.0000 C   0  0  0  0  0  0  0  0  0  0  0  0
   12.8623   -4.4602    0.0000 C   0  0  0  0  0  0  0  0  0  0  0  0
   10.7378   -4.8699    0.0000 C   0  0  0  0  0  0  0  0  0  0  0  0
   10.0299   -4.4617    0.0000 O   0  0  0  0  0  0  0  0  0  0  0  0
   10.7383   -5.6871    0.0000 O   0  0  0  0  0  0  0  0  0  0  0  0
    9.3224   -4.8707    0.0000 C   0  0  0  0  0  0  0  0  0  0  0  0
   12.1599   -5.6871    0.0000 N   0  0  0  0  0  0  0  0  0  0  0  0
   12.8687   -6.0938    0.0000 C   0  0  0  0  0  0  0  0  0  0  0  0
   12.8710   -6.9110    0.0000 O   0  0  0  0  0  0  0  0  0  0  0  0
   13.5753   -5.6832    0.0000 C   0  0  0  0  0  0  0  0  0  0  0  0
   14.2832   -6.0936    0.0000 N   0  0  0  0  0  0  0  0  0  0  0  0
   14.2738   -4.4592    0.0000 C   0  0  0  0  0  0  0  0  0  0  0  0
   13.5706   -4.8713    0.0000 C   0  0  0  0  0  0  0  0  0  0  0  0
   14.9875   -4.8656    0.0000 C   0  0  0  0  0  0  0  0  0  0  0  0
   14.9875   -5.6814    0.0000 C   0  0  0  0  0  0  0  0  0  0  0  0
   15.6929   -6.0875    0.0000 C   0  0  0  0  0  0  0  0  0  0  0  0
   16.3987   -5.6790    0.0000 C   0  0  0  0  0  0  0  0  0  0  0  0
   16.3947   -4.8601    0.0000 C   0  0  0  0  0  0  0  0  0  0  0  0
   15.6888   -4.4577    0.0000 C   0  0  0  0  0  0  0  0  0  0  0  0
   16.3980   -2.4096    0.0000 C   0  0  0  0  0  0  0  0  0  0  0  0
  1  2  1  0
  1  4  1  0
  2  3  1  0
  3  6  1  0
  5  4  1  0
  5  6  2  0
  6  7  1  0
  7  8  2  0
  8  9  1  0
  9 10  2  0
 10  5  1  0
  9 11  1  0
 11 12  1  0
  8 13  1  0
 13 14  1  0
 15 16  2  0
 16 17  1  0
 17 18  2  0
 18 19  1  0
 19 20  2  0
 20 15  1  0
 19 21  1  0
 22 23  2  0
 23 24  1  0
 24 25  2  0
 25 26  1  0
 26 27  2  0
 27 22  1  0
 16 22  1  0
 25 28  1  0
 28 29  1  0
 28 30  2  0
 29 31  1  0
 26 32  1  0
 32 33  1  0
 33 34  2  0
 33 35  1  0
 35 36  2  0
 36 40  1  0
 39 37  1  0
 37 38  2  0
 38 35  1  0
 39 40  2  0
 40 41  1  0
 41 42  2  0
 42 43  1  0
 43 44  2  0
 44 39  1  0
 21 45  1  0
 45  2  1  0
M  END
>  <Curated_InChIs>  (94) 
InChI=1S/C37H35N3O5/c1-43-34-21-28-17-19-40(23-29(28)22-35(34)44-2)18-16-24-8-10-25(11-9-24)27-12-14-30(37(42)45-3)33(20-27)39-36(41)32-15-13-26-6-4-5-7-31(26)38-32/h4-15,20-22H,16-19,23H2,1-3H3,(H,39,41)

>  <threshold>  (94) 
5

>  <pchembl>  (94) 
5.49

>  <Classification>  (94) 
1

>  <source>  (94) 
chembl_28

>  <SMILES>  (94) 
COC(=O)c1ccc(-c2ccc(CCN3CCc4cc(OC)c(OC)cc4C3)cc2)cc1NC(=O)c1ccc2ccccc2n1

>  <InChIKey>  (94) 
KTDLKOVVFMBNMC-UHFFFAOYSA-N

$$$$

     RDKit          2D

 31 34  0  0  0  0  0  0  0  0999 V2000
    8.0336   -6.9565    0.0000 C   0  0  0  0  0  0  0  0  0  0  0  0
    8.7386   -6.5479    0.0000 C   0  0  0  0  0  0  0  0  0  0  0  0
    9.4477   -6.9565    0.0000 C   0  0  0  0  0  0  0  0  0  0  0  0
   10.1567   -6.5479    0.0000 C   0  0  0  0  0  0  0  0  0  0  0  0
   10.1567   -5.7307    0.0000 C   0  0  0  0  0  0  0  0  0  0  0  0
    9.4477   -5.3221    0.0000 C   0  0  0  0  0  0  0  0  0  0  0  0
    8.7386   -5.7307    0.0000 C   0  0  0  0  0  0  0  0  0  0  0  0
    7.3245   -6.5479    0.0000 O   0  0  0  0  0  0  0  0  0  0  0  0
    8.0336   -7.7737    0.0000 N   0  0  0  0  0  0  0  0  0  0  0  0
    7.3245   -8.1823    0.0000 C   0  0  0  0  0  0  0  0  0  0  0  0
    7.3245   -8.9995    0.0000 C   0  0  0  0  0  0  0  0  0  0  0  0
    6.6196   -9.4081    0.0000 C   0  0  0  0  0  0  0  0  0  0  0  0
    5.9105   -8.9995    0.0000 C   0  0  0  0  0  0  0  0  0  0  0  0
    5.9105   -8.1823    0.0000 C   0  0  0  0  0  0  0  0  0  0  0  0
    6.6196   -7.7737    0.0000 C   0  0  0  0  0  0  0  0  0  0  0  0
    8.7809   -9.0737    0.0000 N   0  0  0  0  0  0  0  0  0  0  0  0
    9.3246   -9.6843    0.0000 N   0  0  0  0  0  0  0  0  0  0  0  0
    8.9160  -10.3893    0.0000 N   0  0  0  0  0  0  0  0  0  0  0  0
    8.1176  -10.2226    0.0000 N   0  0  0  0  0  0  0  0  0  0  0  0
    8.0336   -9.4081    0.0000 C   0  0  0  0  0  0  0  0  0  0  0  0
   10.1392   -9.5962    0.0000 C   0  0  0  0  0  0  0  0  0  0  0  0
   10.4735   -8.8489    0.0000 C   0  0  0  0  0  0  0  0  0  0  0  0
   11.2840   -8.7648    0.0000 C   0  0  0  0  0  0  0  0  0  0  0  0
   11.7641   -9.4281    0.0000 C   0  0  0  0  0  0  0  0  0  0  0  0
   11.4338  -10.1713    0.0000 C   0  0  0  0  0  0  0  0  0  0  0  0
   10.6193  -10.2594    0.0000 C   0  0  0  0  0  0  0  0  0  0  0  0
   12.5786   -9.3400    0.0000 O   0  0  0  0  0  0  0  0  0  0  0  0
   13.0588  -10.0032    0.0000 C   0  0  0  0  0  0  0  0  0  0  0  0
   13.8692   -9.9151    0.0000 C   0  0  0  0  0  0  0  0  0  0  0  0
   10.8622   -5.3234    0.0000 O   0  0  0  0  0  0  0  0  0  0  0  0
   10.8619   -4.5062    0.0000 C   0  0  0  0  0  0  0  0  0  0  0  0
  1  2  1  0
  2  3  2  0
  3  4  1  0
  4  5  2  0
  5  6  1  0
  6  7  2  0
  2  7  1  0
  1  8  2  0
  1  9  1  0
 10 11  1  0
 11 12  2  0
 12 13  1  0
 13 14  2  0
 14 15  1  0
 10 15  2  0
 16 17  1  0
 17 18  1  0
 18 19  2  0
 19 20  1  0
 16 20  2  0
 21 22  2  0
 22 23  1  0
 23 24  2  0
 24 25  1  0
 25 26  2  0
 21 26  1  0
 28 29  1  0
 27 28  1  0
 24 27  1  0
 17 21  1  0
 11 20  1  0
  9 10  1  0
 30 31  1  0
  5 30  1  0
M  END
>  <Curated_InChIs>  (95) 
InChI=1S/C23H21N5O3/c1-3-31-19-14-10-17(11-15-19)28-26-22(25-27-28)20-6-4-5-7-21(20)24-23(29)16-8-12-18(30-2)13-9-16/h4-15H,3H2,1-2H3,(H,24,29)

>  <threshold>  (95) 
5

>  <pchembl>  (95) 
6.1

>  <Classification>  (95) 
1

>  <source>  (95) 
chembl_28

>  <SMILES>  (95) 
CCOc1ccc(-n2nnc(-c3ccccc3NC(=O)c3ccc(OC)cc3)n2)cc1

>  <InChIKey>  (95) 
KWNWATIFBIPUJA-UHFFFAOYSA-N

$$$$

     RDKit          2D

 19 21  0  0  0  0  0  0  0  0999 V2000
    2.8359   -2.8007    0.0000 O   0  0  0  0  0  0  0  0  0  0  0  0
    4.2648   -0.3257    0.0000 N   0  0  0  0  0  0  0  0  0  0  0  0
    3.5504    0.9118    0.0000 N   0  0  0  0  0  0  0  0  0  0  0  0
    4.2648    2.1493    0.0000 N   0  0  0  0  0  0  0  0  0  0  0  0
    4.9793    0.9118    0.0000 C   0  0  0  0  0  0  0  0  0  0  0  0
    4.2648    0.4993    0.0000 C   0  0  0  0  0  0  0  0  0  0  0  0
    4.9793    1.7368    0.0000 C   0  0  0  0  0  0  0  0  0  0  0  0
    3.5504   -0.7382    0.0000 C   0  0  0  0  0  0  0  0  0  0  0  0
    5.6938    0.4993    0.0000 C   0  0  0  0  0  0  0  0  0  0  0  0
    5.6938    2.1493    0.0000 C   0  0  0  0  0  0  0  0  0  0  0  0
    3.5504    1.7368    0.0000 C   0  0  0  0  0  0  0  0  0  0  0  0
    3.5504   -1.5632    0.0000 C   0  0  0  0  0  0  0  0  0  0  0  0
    2.8359   -1.9757    0.0000 C   0  0  0  0  0  0  0  0  0  0  0  0
    2.8359   -0.3257    0.0000 C   0  0  0  0  0  0  0  0  0  0  0  0
    6.4083    0.9118    0.0000 C   0  0  0  0  0  0  0  0  0  0  0  0
    6.4083    1.7368    0.0000 C   0  0  0  0  0  0  0  0  0  0  0  0
    2.1214   -1.5632    0.0000 C   0  0  0  0  0  0  0  0  0  0  0  0
    2.1214   -0.7382    0.0000 C   0  0  0  0  0  0  0  0  0  0  0  0
    3.5504   -3.2132    0.0000 C   0  0  0  0  0  0  0  0  0  0  0  0
  1 13  1  0
  1 19  1  0
  2  6  1  0
  2  8  1  0
  3  6  2  0
  3 11  1  0
  4  7  1  0
  4 11  2  0
  5  6  1  0
  5  7  2  0
  5  9  1  0
  7 10  1  0
  8 12  2  0
  8 14  1  0
  9 15  2  0
 10 16  2  0
 12 13  1  0
 13 17  2  0
 14 18  2  0
 15 16  1  0
 17 18  1  0
M  END
>  <Curated_InChIs>  (96) 
InChI=1S/C15H13N3O/c1-19-12-6-4-5-11(9-12)18-15-13-7-2-3-8-14(13)16-10-17-15/h2-10H,1H3,(H,16,17,18)

>  <threshold>  (96) 
5

>  <pchembl>  (96) 
6.19

>  <Classification>  (96) 
1

>  <source>  (96) 
chembl_28

>  <SMILES>  (96) 
COc1cccc(Nc2ncnc3ccccc23)c1

>  <InChIKey>  (96) 
LCYPRFCDTJTQPG-UHFFFAOYSA-N

$$$$

     RDKit          2D

 26 29  0  0  0  0  0  0  0  0999 V2000
    9.6068  -19.3030    0.0000 C   0  0  0  0  0  0  0  0  0  0  0  0
    9.6056  -20.1225    0.0000 C   0  0  0  0  0  0  0  0  0  0  0  0
   10.3137  -20.5315    0.0000 C   0  0  0  0  0  0  0  0  0  0  0  0
   10.3119  -18.8942    0.0000 C   0  0  0  0  0  0  0  0  0  0  0  0
   11.0205  -19.2994    0.0000 C   0  0  0  0  0  0  0  0  0  0  0  0
   11.0213  -20.1184    0.0000 C   0  0  0  0  0  0  0  0  0  0  0  0
   11.7298  -20.5255    0.0000 N   0  0  0  0  0  0  0  0  0  0  0  0
   12.4381  -20.1147    0.0000 C   0  0  0  0  0  0  0  0  0  0  0  0
   12.4333  -19.2925    0.0000 N   0  0  0  0  0  0  0  0  0  0  0  0
   11.7242  -18.8892    0.0000 C   0  0  0  0  0  0  0  0  0  0  0  0
   13.1515  -20.5177    0.0000 C   0  0  0  0  0  0  0  0  0  0  0  0
   11.7199  -18.0720    0.0000 O   0  0  0  0  0  0  0  0  0  0  0  0
   12.4254  -17.6597    0.0000 C   0  0  0  0  0  0  0  0  0  0  0  0
   13.1307  -18.0679    0.0000 C   0  0  0  0  0  0  0  0  0  0  0  0
   13.8358  -17.6562    0.0000 C   0  0  0  0  0  0  0  0  0  0  0  0
   13.8319  -16.8382    0.0000 C   0  0  0  0  0  0  0  0  0  0  0  0
   13.1170  -16.4335    0.0000 C   0  0  0  0  0  0  0  0  0  0  0  0
   12.4149  -16.8475    0.0000 C   0  0  0  0  0  0  0  0  0  0  0  0
   13.1543  -21.3369    0.0000 C   0  0  0  0  0  0  0  0  0  0  0  0
   13.8669  -21.7399    0.0000 C   0  0  0  0  0  0  0  0  0  0  0  0
   14.5736  -21.3234    0.0000 C   0  0  0  0  0  0  0  0  0  0  0  0
   14.5632  -20.4999    0.0000 C   0  0  0  0  0  0  0  0  0  0  0  0
   13.8501  -20.1007    0.0000 C   0  0  0  0  0  0  0  0  0  0  0  0
   14.5468  -18.0614    0.0000 N   0  0  0  0  0  0  0  0  0  0  0  0
   15.2525  -17.6494    0.0000 O   0  0  0  0  0  0  0  0  0  0  0  0
   14.5507  -18.8786    0.0000 O   0  0  0  0  0  0  0  0  0  0  0  0
  1  2  2  0
  2  3  1  0
  3  6  2  0
  5  4  2  0
  4  1  1  0
  5  6  1  0
  6  7  1  0
  7  8  2  0
  8  9  1  0
  9 10  2  0
 10  5  1  0
  8 11  1  0
 10 12  1  0
 12 13  1  0
 13 14  2  0
 14 15  1  0
 15 16  2  0
 16 17  1  0
 17 18  2  0
 18 13  1  0
 11 19  2  0
 19 20  1  0
 20 21  2  0
 21 22  1  0
 22 23  2  0
 23 11  1  0
 24 25  2  0
 24 26  1  0
 15 24  1  0
M  CHG  2  24   1  26  -1
M  END
>  <Curated_InChIs>  (97) 
InChI=1S/C20H13N3O3/c24-23(25)15-9-6-10-16(13-15)26-20-17-11-4-5-12-18(17)21-19(22-20)14-7-2-1-3-8-14/h1-13H

>  <threshold>  (97) 
5

>  <pchembl>  (97) 
5.32

>  <Classification>  (97) 
1

>  <source>  (97) 
chembl_28

>  <SMILES>  (97) 
O=[N+]([O-])c1cccc(Oc2nc(-c3ccccc3)nc3ccccc23)c1

>  <InChIKey>  (97) 
LIUFZADAAROVBK-UHFFFAOYSA-N

$$$$

     RDKit          2D

 44 49  0  0  0  0  0  0  0  0999 V2000
    1.3154  -15.4096    0.0000 C   0  0  0  0  0  0  0  0  0  0  0  0
    1.3141  -16.2370    0.0000 C   0  0  0  0  0  0  0  0  0  0  0  0
    2.0291  -16.6499    0.0000 C   0  0  0  0  0  0  0  0  0  0  0  0
    2.7455  -16.2365    0.0000 C   0  0  0  0  0  0  0  0  0  0  0  0
    2.7427  -15.4059    0.0000 C   0  0  0  0  0  0  0  0  0  0  0  0
    2.0272  -14.9967    0.0000 C   0  0  0  0  0  0  0  0  0  0  0  0
    3.4557  -14.9907    0.0000 C   0  0  0  0  0  0  0  0  0  0  0  0
    4.1717  -15.4005    0.0000 N   0  0  0  0  0  0  0  0  0  0  0  0
    4.1722  -16.2227    0.0000 C   0  0  0  0  0  0  0  0  0  0  0  0
    4.8842  -16.6325    0.0000 C   0  0  0  0  0  0  0  0  0  0  0  0
    4.8820  -14.9805    0.0000 C   0  0  0  0  0  0  0  0  0  0  0  0
    5.5985  -15.3948    0.0000 C   0  0  0  0  0  0  0  0  0  0  0  0
    5.5978  -16.2203    0.0000 C   0  0  0  0  0  0  0  0  0  0  0  0
    6.3113  -16.6317    0.0000 C   0  0  0  0  0  0  0  0  0  0  0  0
    7.0259  -16.2189    0.0000 C   0  0  0  0  0  0  0  0  0  0  0  0
    7.0225  -15.3903    0.0000 C   0  0  0  0  0  0  0  0  0  0  0  0
    6.3085  -14.9825    0.0000 C   0  0  0  0  0  0  0  0  0  0  0  0
    0.6012  -16.6492    0.0000 C   0  0  0  0  0  0  0  0  0  0  0  0
   -0.1201  -16.2343    0.0000 C   0  0  0  0  0  0  0  0  0  0  0  0
   -0.8308  -16.6457    0.0000 C   0  0  0  0  0  0  0  0  0  0  0  0
   -0.8297  -17.4716    0.0000 C   0  0  0  0  0  0  0  0  0  0  0  0
   -0.1155  -17.8846    0.0000 C   0  0  0  0  0  0  0  0  0  0  0  0
    0.6019  -17.4708    0.0000 C   0  0  0  0  0  0  0  0  0  0  0  0
   -1.5489  -17.8845    0.0000 C   0  0  0  0  0  0  0  0  0  0  0  0
   -2.2593  -17.4723    0.0000 O   0  0  0  0  0  0  0  0  0  0  0  0
   -1.5494  -18.7096    0.0000 O   0  0  0  0  0  0  0  0  0  0  0  0
   -2.9784  -17.8853    0.0000 C   0  0  0  0  0  0  0  0  0  0  0  0
   -0.1094  -18.7096    0.0000 N   0  0  0  0  0  0  0  0  0  0  0  0
    0.6084  -19.1202    0.0000 C   0  0  0  0  0  0  0  0  0  0  0  0
    0.6107  -19.9452    0.0000 O   0  0  0  0  0  0  0  0  0  0  0  0
    1.3218  -18.7057    0.0000 C   0  0  0  0  0  0  0  0  0  0  0  0
    2.0365  -19.1200    0.0000 N   0  0  0  0  0  0  0  0  0  0  0  0
    2.0269  -17.4698    0.0000 C   0  0  0  0  0  0  0  0  0  0  0  0
    1.3170  -17.8860    0.0000 C   0  0  0  0  0  0  0  0  0  0  0  0
    2.7476  -17.8802    0.0000 C   0  0  0  0  0  0  0  0  0  0  0  0
    2.7476  -18.7038    0.0000 C   0  0  0  0  0  0  0  0  0  0  0  0
    3.4597  -19.1138    0.0000 C   0  0  0  0  0  0  0  0  0  0  0  0
    4.1724  -18.7014    0.0000 C   0  0  0  0  0  0  0  0  0  0  0  0
    4.1684  -17.8746    0.0000 C   0  0  0  0  0  0  0  0  0  0  0  0
    3.4557  -17.4683    0.0000 C   0  0  0  0  0  0  0  0  0  0  0  0
    7.7352  -14.9745    0.0000 O   0  0  0  0  0  0  0  0  0  0  0  0
    8.4516  -15.3839    0.0000 C   0  0  0  0  0  0  0  0  0  0  0  0
    7.7414  -16.6298    0.0000 O   0  0  0  0  0  0  0  0  0  0  0  0
    7.7432  -17.4549    0.0000 C   0  0  0  0  0  0  0  0  0  0  0  0
  1  2  2  0
  2  3  1  0
  3  4  2  0
  4  5  1  0
  5  6  2  0
  6  1  1  0
  5  7  1  0
  7  8  1  0
  8  9  1  0
  8 11  1  0
  9 10  1  0
 10 13  1  0
 12 11  1  0
 12 13  2  0
 13 14  1  0
 14 15  2  0
 15 16  1  0
 16 17  2  0
 17 12  1  0
 18 19  2  0
 19 20  1  0
 20 21  2  0
 21 22  1  0
 22 23  2  0
 23 18  1  0
  2 18  1  0
 21 24  1  0
 24 25  1  0
 24 26  2  0
 25 27  1  0
 22 28  1  0
 28 29  1  0
 29 30  2  0
 29 31  1  0
 31 32  2  0
 32 36  1  0
 35 33  1  0
 33 34  2  0
 34 31  1  0
 35 36  2  0
 36 37  1  0
 37 38  2  0
 38 39  1  0
 39 40  2  0
 40 35  1  0
 16 41  1  0
 41 42  1  0
 15 43  1  0
 43 44  1  0
M  END
>  <Curated_InChIs>  (98) 
InChI=1S/C36H33N3O5/c1-42-33-19-27-16-17-39(22-28(27)20-34(33)43-2)21-23-8-10-24(11-9-23)26-12-14-29(36(41)44-3)32(18-26)38-35(40)31-15-13-25-6-4-5-7-30(25)37-31/h4-15,18-20H,16-17,21-22H2,1-3H3,(H,38,40)

>  <threshold>  (98) 
5

>  <pchembl>  (98) 
6.03

>  <Classification>  (98) 
1

>  <source>  (98) 
chembl_28

>  <SMILES>  (98) 
COC(=O)c1ccc(-c2ccc(CN3CCc4cc(OC)c(OC)cc4C3)cc2)cc1NC(=O)c1ccc2ccccc2n1

>  <InChIKey>  (98) 
LNCUOIFARAALBE-UHFFFAOYSA-N

$$$$

     RDKit          2D

 35 39  0  0  0  0  0  0  0  0999 V2000
   -2.5835   -5.2544    0.0000 C   0  0  0  0  0  0  0  0  0  0  0  0
   -2.5870   -3.7544    0.0000 C   0  0  0  0  0  0  0  0  0  0  0  0
   -3.8880   -3.0076    0.0000 C   0  0  0  0  0  0  0  0  0  0  0  0
   -5.1852   -3.7608    0.0000 C   0  0  0  0  0  0  0  0  0  0  0  0
   -5.1815   -5.2608    0.0000 C   0  0  0  0  0  0  0  0  0  0  0  0
   -3.8807   -6.0076    0.0000 C   0  0  0  0  0  0  0  0  0  0  0  0
   -6.4883   -3.0162    0.0000 C   0  0  0  0  0  0  0  0  0  0  0  0
   -6.4933   -1.8162    0.0000 O   0  0  0  0  0  0  0  0  0  0  0  0
   -7.7852   -3.7717    0.0000 C   0  0  0  0  0  0  0  0  0  0  0  0
   -9.0883   -3.0271    0.0000 C   0  0  0  0  0  0  0  0  0  0  0  0
  -10.3851   -3.7825    0.0000 C   0  0  0  0  0  0  0  0  0  0  0  0
  -11.6886   -3.0403    0.0000 C   0  0  0  0  0  0  0  0  0  0  0  0
  -12.9832   -3.7979    0.0000 C   0  0  0  0  0  0  0  0  0  0  0  0
  -12.9744   -5.2979    0.0000 C   0  0  0  0  0  0  0  0  0  0  0  0
  -11.6709   -6.0402    0.0000 C   0  0  0  0  0  0  0  0  0  0  0  0
  -10.3763   -5.2826    0.0000 C   0  0  0  0  0  0  0  0  0  0  0  0
   -1.2907   -2.9981    0.0000 N   0  0  0  0  0  0  0  0  0  0  0  0
   -1.2964   -1.4973    0.0000 C   0  0  0  0  0  0  0  0  0  0  0  0
   -1.2964    1.4973    0.0000 N   0  0  0  0  0  0  0  0  0  0  0  0
   -2.6111    0.7486    0.0000 C   0  0  0  0  0  0  0  0  0  0  0  0
   -2.6111   -0.7486    0.0000 N   0  0  0  0  0  0  0  0  0  0  0  0
    0.0000    0.7486    0.0000 C   0  0  0  0  0  0  0  0  0  0  0  0
    0.0000   -0.7486    0.0000 C   0  0  0  0  0  0  0  0  0  0  0  0
    1.2964   -1.4973    0.0000 C   0  0  0  0  0  0  0  0  0  0  0  0
    2.5929   -0.7486    0.0000 C   0  0  0  0  0  0  0  0  0  0  0  0
    2.5929    0.7486    0.0000 C   0  0  0  0  0  0  0  0  0  0  0  0
    1.2964    1.4973    0.0000 C   0  0  0  0  0  0  0  0  0  0  0  0
  -14.2681   -6.0587    0.0000 O   0  0  0  0  0  0  0  0  0  0  0  0
  -14.2593   -7.2586    0.0000 C   0  0  0  0  0  0  0  0  0  0  0  0
   -3.9086    1.5029    0.0000 C   0  0  0  0  0  0  0  0  0  0  0  0
   -5.2125    0.7617    0.0000 C   0  0  0  0  0  0  0  0  0  0  0  0
   -6.5065    1.5203    0.0000 C   0  0  0  0  0  0  0  0  0  0  0  0
   -6.4965    3.0203    0.0000 C   0  0  0  0  0  0  0  0  0  0  0  0
   -5.1925    3.7616    0.0000 C   0  0  0  0  0  0  0  0  0  0  0  0
   -3.8985    3.0029    0.0000 C   0  0  0  0  0  0  0  0  0  0  0  0
  1  2  2  0
  2  3  1  0
  3  4  2  0
  4  5  1  0
  5  6  2  0
  6  1  1  0
  4  7  1  0
  7  8  2  0
  7  9  1  0
  9 10  2  0
 10 11  1  0
 11 12  2  0
 12 13  1  0
 13 14  2  0
 14 15  1  0
 15 16  2  0
 16 11  1  0
  2 17  1  0
 17 18  1  0
 18 23  2  0
 22 19  2  0
 19 20  1  0
 20 21  2  0
 21 18  1  0
 22 23  1  0
 23 24  1  0
 24 25  2  0
 25 26  1  0
 26 27  2  0
 27 22  1  0
 14 28  1  0
 28 29  1  0
 20 30  1  0
 30 31  2  0
 31 32  1  0
 32 33  2  0
 33 34  1  0
 34 35  2  0
 35 30  1  0
M  END
>  <Curated_InChIs>  (99) 
InChI=1S/C30H23N3O2/c1-35-25-17-14-21(15-18-25)16-19-28(34)23-10-7-11-24(20-23)31-30-26-12-5-6-13-27(26)32-29(33-30)22-8-3-2-4-9-22/h2-20H,1H3,(H,31,32,33)

>  <threshold>  (99) 
5

>  <pchembl>  (99) 
6.01

>  <Classification>  (99) 
1

>  <source>  (99) 
chembl_28

>  <SMILES>  (99) 
COc1ccc(/C=C/C(=O)c2cccc(Nc3nc(-c4ccccc4)nc4ccccc34)c2)cc1

>  <InChIKey>  (99) 
LRWVQZDLCREUSK-KNTRCKAVSA-N

$$$$

     RDKit          2D

 25 28  0  0  0  0  0  0  0  0999 V2000
   33.5901  -10.6565    0.0000 C   0  0  0  0  0  0  0  0  0  0  0  0
   33.5890  -11.4760    0.0000 C   0  0  0  0  0  0  0  0  0  0  0  0
   34.2970  -11.8850    0.0000 C   0  0  0  0  0  0  0  0  0  0  0  0
   34.2952  -10.2476    0.0000 C   0  0  0  0  0  0  0  0  0  0  0  0
   35.0038  -10.6529    0.0000 C   0  0  0  0  0  0  0  0  0  0  0  0
   35.0046  -11.4719    0.0000 C   0  0  0  0  0  0  0  0  0  0  0  0
   35.7131  -11.8789    0.0000 N   0  0  0  0  0  0  0  0  0  0  0  0
   36.4214  -11.4681    0.0000 C   0  0  0  0  0  0  0  0  0  0  0  0
   36.4166  -10.6460    0.0000 C   0  0  0  0  0  0  0  0  0  0  0  0
   35.7075  -10.2426    0.0000 C   0  0  0  0  0  0  0  0  0  0  0  0
   35.7032   -9.4255    0.0000 N   0  0  0  0  0  0  0  0  0  0  0  0
   36.4087   -9.0131    0.0000 C   0  0  0  0  0  0  0  0  0  0  0  0
   37.1140   -9.4213    0.0000 C   0  0  0  0  0  0  0  0  0  0  0  0
   37.8191   -9.0097    0.0000 C   0  0  0  0  0  0  0  0  0  0  0  0
   37.8152   -8.1916    0.0000 C   0  0  0  0  0  0  0  0  0  0  0  0
   37.1003   -7.7870    0.0000 C   0  0  0  0  0  0  0  0  0  0  0  0
   36.3982   -8.2010    0.0000 C   0  0  0  0  0  0  0  0  0  0  0  0
   37.1271  -11.8699    0.0000 C   0  0  0  0  0  0  0  0  0  0  0  0
   37.1290  -12.6882    0.0000 C   0  0  0  0  0  0  0  0  0  0  0  0
   37.8374  -13.0940    0.0000 C   0  0  0  0  0  0  0  0  0  0  0  0
   38.5445  -12.6826    0.0000 C   0  0  0  0  0  0  0  0  0  0  0  0
   38.5387  -11.8611    0.0000 C   0  0  0  0  0  0  0  0  0  0  0  0
   37.8297  -11.4591    0.0000 C   0  0  0  0  0  0  0  0  0  0  0  0
   38.5287   -9.4149    0.0000 S   0  0  0  0  0  0  0  0  0  0  0  0
   38.5327  -10.2320    0.0000 C   0  0  0  0  0  0  0  0  0  0  0  0
  1  2  2  0
  2  3  1  0
  3  6  2  0
  5  4  2  0
  4  1  1  0
  5  6  1  0
  6  7  1  0
  7  8  2  0
  8  9  1  0
  9 10  2  0
 10  5  1  0
 10 11  1  0
 11 12  1  0
 12 13  2  0
 13 14  1  0
 14 15  2  0
 15 16  1  0
 16 17  2  0
 17 12  1  0
 18 19  2  0
 19 20  1  0
 20 21  2  0
 21 22  1  0
 22 23  2  0
 23 18  1  0
  8 18  1  0
 14 24  1  0
 24 25  1  0
M  END
>  <Curated_InChIs>  (100) 
InChI=1S/C22H18N2S/c1-25-18-11-7-10-17(14-18)23-22-15-21(16-8-3-2-4-9-16)24-20-13-6-5-12-19(20)22/h2-15H,1H3,(H,23,24)

>  <threshold>  (100) 
5

>  <pchembl>  (100) 
5.72

>  <Classification>  (100) 
1

>  <source>  (100) 
chembl_28

>  <SMILES>  (100) 
CSc1cccc(Nc2cc(-c3ccccc3)nc3ccccc23)c1

>  <InChIKey>  (100) 
LTDJZGASGBIVLZ-UHFFFAOYSA-N

$$$$

     RDKit          2D

 21 23  0  0  0  0  0  0  0  0999 V2000
    2.0622  -10.9743    0.0000 C   0  0  0  0  0  0  0  0  0  0  0  0
    2.0611  -11.7938    0.0000 C   0  0  0  0  0  0  0  0  0  0  0  0
    2.7691  -12.2028    0.0000 C   0  0  0  0  0  0  0  0  0  0  0  0
    2.7673  -10.5654    0.0000 C   0  0  0  0  0  0  0  0  0  0  0  0
    3.4759  -10.9707    0.0000 C   0  0  0  0  0  0  0  0  0  0  0  0
    3.4767  -11.7897    0.0000 C   0  0  0  0  0  0  0  0  0  0  0  0
    4.1852  -12.1967    0.0000 N   0  0  0  0  0  0  0  0  0  0  0  0
    4.8935  -11.7859    0.0000 C   0  0  0  0  0  0  0  0  0  0  0  0
    4.8888  -10.9638    0.0000 N   0  0  0  0  0  0  0  0  0  0  0  0
    4.1796  -10.5604    0.0000 C   0  0  0  0  0  0  0  0  0  0  0  0
    4.1753   -9.7433    0.0000 N   0  0  0  0  0  0  0  0  0  0  0  0
    4.8808   -9.3309    0.0000 C   0  0  0  0  0  0  0  0  0  0  0  0
    5.5861   -9.7391    0.0000 C   0  0  0  0  0  0  0  0  0  0  0  0
    6.2912   -9.3275    0.0000 C   0  0  0  0  0  0  0  0  0  0  0  0
    6.2873   -8.5094    0.0000 C   0  0  0  0  0  0  0  0  0  0  0  0
    5.5724   -8.1048    0.0000 C   0  0  0  0  0  0  0  0  0  0  0  0
    4.8703   -8.5188    0.0000 C   0  0  0  0  0  0  0  0  0  0  0  0
    5.5652   -7.2838    0.0000 N   0  0  0  0  0  0  0  0  0  0  0  0
    4.8539   -6.8814    0.0000 O   0  0  0  0  0  0  0  0  0  0  0  0
    6.2693   -6.8689    0.0000 O   0  0  0  0  0  0  0  0  0  0  0  0
    6.9923   -8.0961    0.0000 O   0  0  0  0  0  0  0  0  0  0  0  0
  1  2  2  0
  2  3  1  0
  3  6  2  0
  5  4  2  0
  4  1  1  0
  5  6  1  0
  6  7  1  0
  7  8  2  0
  8  9  1  0
  9 10  2  0
 10  5  1  0
 10 11  1  0
 11 12  1  0
 12 13  2  0
 13 14  1  0
 14 15  2  0
 15 16  1  0
 16 17  2  0
 17 12  1  0
 18 19  2  0
 18 20  1  0
 16 18  1  0
 15 21  1  0
M  CHG  2  18   1  20  -1
M  END
>  <Curated_InChIs>  (101) 
InChI=1S/C14H10N4O3/c19-13-6-5-9(7-12(13)18(20)21)17-14-10-3-1-2-4-11(10)15-8-16-14/h1-8,19H,(H,15,16,17)

>  <threshold>  (101) 
5

>  <pchembl>  (101) 
5.54

>  <Classification>  (101) 
1

>  <source>  (101) 
chembl_28

>  <SMILES>  (101) 
O=[N+]([O-])c1cc(Nc2ncnc3ccccc23)ccc1O

>  <InChIKey>  (101) 
LWSQQLRJOQLLIT-UHFFFAOYSA-N

$$$$

     RDKit          2D

 31 34  0  0  0  0  0  0  0  0999 V2000
   -5.8676    3.5747    0.0000 C   0  0  0  0  0  0  0  0  0  0  0  0
   -5.8688    2.7474    0.0000 C   0  0  0  0  0  0  0  0  0  0  0  0
   -5.1539    2.3346    0.0000 C   0  0  0  0  0  0  0  0  0  0  0  0
   -5.1557    3.9874    0.0000 C   0  0  0  0  0  0  0  0  0  0  0  0
   -4.4405    3.5784    0.0000 C   0  0  0  0  0  0  0  0  0  0  0  0
   -4.4370    2.7453    0.0000 C   0  0  0  0  0  0  0  0  0  0  0  0
   -3.7180    2.3341    0.0000 C   0  0  0  0  0  0  0  0  0  0  0  0
   -2.9976    2.7512    0.0000 N   0  0  0  0  0  0  0  0  0  0  0  0
   -3.0010    3.5843    0.0000 C   0  0  0  0  0  0  0  0  0  0  0  0
   -3.7248    4.0075    0.0000 C   0  0  0  0  0  0  0  0  0  0  0  0
   -2.2821    2.3407    0.0000 C   0  0  0  0  0  0  0  0  0  0  0  0
   -1.5688    2.7551    0.0000 C   0  0  0  0  0  0  0  0  0  0  0  0
   -0.8532    2.3446    0.0000 C   0  0  0  0  0  0  0  0  0  0  0  0
   -0.8546    1.5196    0.0000 C   0  0  0  0  0  0  0  0  0  0  0  0
   -0.1399    1.1092    0.0000 C   0  0  0  0  0  0  0  0  0  0  0  0
    0.5743    1.5237    0.0000 C   0  0  0  0  0  0  0  0  0  0  0  0
    0.5694    2.3528    0.0000 C   0  0  0  0  0  0  0  0  0  0  0  0
   -0.1459    2.7595    0.0000 C   0  0  0  0  0  0  0  0  0  0  0  0
    1.2904    1.1141    0.0000 N   0  0  0  0  0  0  0  0  0  0  0  0
    2.0031    1.5295    0.0000 C   0  0  0  0  0  0  0  0  0  0  0  0
    2.7193    1.1199    0.0000 N   0  0  0  0  0  0  0  0  0  0  0  0
    1.9998    2.3544    0.0000 O   0  0  0  0  0  0  0  0  0  0  0  0
    3.4319    1.5353    0.0000 C   0  0  0  0  0  0  0  0  0  0  0  0
    4.1462    1.1247    0.0000 C   0  0  0  0  0  0  0  0  0  0  0  0
    4.8585    1.5394    0.0000 C   0  0  0  0  0  0  0  0  0  0  0  0
    4.8556    2.3652    0.0000 C   0  0  0  0  0  0  0  0  0  0  0  0
    4.1345    2.7745    0.0000 C   0  0  0  0  0  0  0  0  0  0  0  0
    3.4252    2.3575    0.0000 C   0  0  0  0  0  0  0  0  0  0  0  0
    4.1514    0.2980    0.0000 N   0  0  0  0  0  0  0  0  0  0  0  0
    4.8670   -0.1125    0.0000 O   0  0  0  0  0  0  0  0  0  0  0  0
    3.4382   -0.1165    0.0000 O   0  0  0  0  0  0  0  0  0  0  0  0
 14 15  2  0
  5  4  1  0
 15 16  1  0
  4  1  2  0
 16 17  2  0
  5 10  1  0
 17 18  1  0
 18 13  2  0
  6  7  1  0
 16 19  1  0
  7  8  1  0
 19 20  1  0
  8  9  1  0
 20 21  1  0
  9 10  1  0
 20 22  2  0
  5  6  2  0
 21 23  1  0
  8 11  1  0
 23 24  2  0
 24 25  1  0
 11 12  1  0
 25 26  2  0
  2  3  2  0
 26 27  1  0
 12 13  1  0
 27 28  2  0
 28 23  1  0
  3  6  1  0
 13 14  1  0
  1  2  1  0
 29 30  2  0
 29 31  1  0
 24 29  1  0
M  CHG  2  29   1  31  -1
M  END
>  <Curated_InChIs>  (102) 
InChI=1S/C24H24N4O3/c29-24(26-22-7-3-4-8-23(22)28(30)31)25-21-11-9-18(10-12-21)13-15-27-16-14-19-5-1-2-6-20(19)17-27/h1-12H,13-17H2,(H2,25,26,29)

>  <threshold>  (102) 
5

>  <pchembl>  (102) 
5.17, 5.06

>  <Classification>  (102) 
1

>  <source>  (102) 
chembl_28

>  <SMILES>  (102) 
O=C(Nc1ccc(CCN2CCc3ccccc3C2)cc1)Nc1ccccc1[N+](=O)[O-]

>  <InChIKey>  (102) 
LYWURPUUGRPDKS-UHFFFAOYSA-N

$$$$

     RDKit          2D

 33 38  0  0  0  0  0  0  0  0999 V2000
   32.8348  -10.9495    0.0000 C   0  0  0  0  0  0  0  0  0  0  0  0
   32.8337  -11.7690    0.0000 C   0  0  0  0  0  0  0  0  0  0  0  0
   33.5417  -12.1780    0.0000 C   0  0  0  0  0  0  0  0  0  0  0  0
   33.5399  -10.5406    0.0000 C   0  0  0  0  0  0  0  0  0  0  0  0
   34.2485  -10.9459    0.0000 C   0  0  0  0  0  0  0  0  0  0  0  0
   34.2488  -11.7691    0.0000 C   0  0  0  0  0  0  0  0  0  0  0  0
   35.0318  -12.0233    0.0000 N   0  0  0  0  0  0  0  0  0  0  0  0
   35.0314  -10.6914    0.0000 C   0  0  0  0  0  0  0  0  0  0  0  0
   35.5155  -11.3585    0.0000 C   0  0  0  0  0  0  0  0  0  0  0  0
   36.3308  -11.2732    0.0000 C   0  0  0  0  0  0  0  0  0  0  0  0
   36.6683  -10.5218    0.0000 N   0  0  0  0  0  0  0  0  0  0  0  0
   36.1841   -9.8547    0.0000 C   0  0  0  0  0  0  0  0  0  0  0  0
   35.3625   -9.9390    0.0000 C   0  0  0  0  0  0  0  0  0  0  0  0
   37.4812  -10.4379    0.0000 C   0  0  0  0  0  0  0  0  0  0  0  0
   37.9603  -11.0999    0.0000 O   0  0  0  0  0  0  0  0  0  0  0  0
   37.8150   -9.6920    0.0000 C   0  0  0  0  0  0  0  0  0  0  0  0
   38.4826   -8.2041    0.0000 C   0  0  0  0  0  0  0  0  0  0  0  0
   37.6658   -8.2910    0.0000 C   0  0  0  0  0  0  0  0  0  0  0  0
   37.3358   -9.0363    0.0000 C   0  0  0  0  0  0  0  0  0  0  0  0
   36.8108  -11.9318    0.0000 C   0  0  0  0  0  0  0  0  0  0  0  0
   36.4753  -12.6782    0.0000 C   0  0  0  0  0  0  0  0  0  0  0  0
   36.9537  -13.3398    0.0000 C   0  0  0  0  0  0  0  0  0  0  0  0
   37.7675  -13.2563    0.0000 C   0  0  0  0  0  0  0  0  0  0  0  0
   38.1006  -12.5054    0.0000 C   0  0  0  0  0  0  0  0  0  0  0  0
   37.6202  -11.8470    0.0000 C   0  0  0  0  0  0  0  0  0  0  0  0
   36.6196  -14.0856    0.0000 Cl  0  0  0  0  0  0  0  0  0  0  0  0
   38.2475  -13.9177    0.0000 Cl  0  0  0  0  0  0  0  0  0  0  0  0
   38.9619   -8.8670    0.0000 C   0  0  0  0  0  0  0  0  0  0  0  0
   38.6252   -9.6090    0.0000 C   0  0  0  0  0  0  0  0  0  0  0  0
   39.0992  -10.2695    0.0000 C   0  0  0  0  0  0  0  0  0  0  0  0
   39.9098  -10.1892    0.0000 C   0  0  0  0  0  0  0  0  0  0  0  0
   40.2441   -9.4428    0.0000 C   0  0  0  0  0  0  0  0  0  0  0  0
   39.7681   -8.7854    0.0000 C   0  0  0  0  0  0  0  0  0  0  0  0
  1  2  2  0
  2  3  1  0
  3  6  2  0
  5  4  2  0
  4  1  1  0
  5  6  1  0
  6  7  1  0
  7  9  1  0
  8  5  1  0
  8  9  2  0
  8 13  1  0
  9 10  1  0
 10 11  1  0
 11 12  1  0
 12 13  1  0
 11 14  1  0
 14 15  2  0
 14 16  1  0
 16 29  2  0
 28 17  2  0
 17 18  1  0
 18 19  2  0
 19 16  1  0
 20 21  2  0
 21 22  1  0
 22 23  2  0
 23 24  1  0
 24 25  2  0
 25 20  1  0
 10 20  1  0
 22 26  1  0
 23 27  1  0
 28 29  1  0
 29 30  1  0
 30 31  2  0
 31 32  1  0
 32 33  2  0
 33 28  1  0
M  END
>  <Curated_InChIs>  (103) 
InChI=1S/C28H20Cl2N2O/c29-23-13-12-18(16-24(23)30)27-26-21(20-9-3-4-11-25(20)31-26)14-15-32(27)28(33)22-10-5-7-17-6-1-2-8-19(17)22/h1-13,16,27,31H,14-15H2

>  <threshold>  (103) 
5

>  <pchembl>  (103) 
5.88

>  <Classification>  (103) 
1

>  <source>  (103) 
chembl_28

>  <SMILES>  (103) 
O=C(c1cccc2ccccc12)N1CCc2c([nH]c3ccccc23)C1c1ccc(Cl)c(Cl)c1

>  <InChIKey>  (103) 
MCGLJGGVMKMICF-UHFFFAOYSA-N

$$$$

     RDKit          2D

 33 35  0  0  0  0  0  0  0  0999 V2000
   17.1074  -28.8081    0.0000 C   0  0  0  0  0  0  0  0  0  0  0  0
   17.1115  -29.6335    0.0000 C   0  0  0  0  0  0  0  0  0  0  0  0
   17.8172  -28.3995    0.0000 C   0  0  0  0  0  0  0  0  0  0  0  0
   18.5230  -28.8081    0.0000 C   0  0  0  0  0  0  0  0  0  0  0  0
   18.5230  -29.6335    0.0000 C   0  0  0  0  0  0  0  0  0  0  0  0
   17.8172  -30.0421    0.0000 C   0  0  0  0  0  0  0  0  0  0  0  0
   19.2310  -30.0417    0.0000 N   0  0  0  0  0  0  0  0  0  0  0  0
   19.9384  -29.6327    0.0000 C   0  0  0  0  0  0  0  0  0  0  0  0
   20.6464  -30.0408    0.0000 C   0  0  0  0  0  0  0  0  0  0  0  0
   19.9379  -28.8155    0.0000 O   0  0  0  0  0  0  0  0  0  0  0  0
   21.3538  -29.6318    0.0000 O   0  0  0  0  0  0  0  0  0  0  0  0
   22.0618  -30.0400    0.0000 C   0  0  0  0  0  0  0  0  0  0  0  0
   22.0578  -30.8562    0.0000 C   0  0  0  0  0  0  0  0  0  0  0  0
   22.7649  -31.2643    0.0000 C   0  0  0  0  0  0  0  0  0  0  0  0
   23.4733  -30.8553    0.0000 C   0  0  0  0  0  0  0  0  0  0  0  0
   23.4702  -30.0338    0.0000 C   0  0  0  0  0  0  0  0  0  0  0  0
   22.7625  -29.6294    0.0000 C   0  0  0  0  0  0  0  0  0  0  0  0
   24.1818  -31.2625    0.0000 C   0  0  0  0  0  0  0  0  0  0  0  0
   24.1834  -32.0797    0.0000 O   0  0  0  0  0  0  0  0  0  0  0  0
   24.8888  -30.8525    0.0000 C   0  0  0  0  0  0  0  0  0  0  0  0
   25.5972  -31.2598    0.0000 C   0  0  0  0  0  0  0  0  0  0  0  0
   26.3042  -30.8498    0.0000 C   0  0  0  0  0  0  0  0  0  0  0  0
   27.0090  -31.2597    0.0000 C   0  0  0  0  0  0  0  0  0  0  0  0
   27.7155  -30.8504    0.0000 C   0  0  0  0  0  0  0  0  0  0  0  0
   27.7143  -30.0323    0.0000 C   0  0  0  0  0  0  0  0  0  0  0  0
   27.0009  -29.6253    0.0000 C   0  0  0  0  0  0  0  0  0  0  0  0
   26.2974  -30.0369    0.0000 C   0  0  0  0  0  0  0  0  0  0  0  0
   16.3989  -28.4008    0.0000 O   0  0  0  0  0  0  0  0  0  0  0  0
   16.4046  -30.0434    0.0000 O   0  0  0  0  0  0  0  0  0  0  0  0
   16.3974  -27.5836    0.0000 C   0  0  0  0  0  0  0  0  0  0  0  0
   15.6961  -29.6362    0.0000 C   0  0  0  0  0  0  0  0  0  0  0  0
   27.0084  -32.0769    0.0000 F   0  0  0  0  0  0  0  0  0  0  0  0
   25.5868  -29.6333    0.0000 F   0  0  0  0  0  0  0  0  0  0  0  0
  2  1  2  0
  3  1  1  0
  4  3  2  0
  5  4  1  0
  6  2  1  0
  6  5  2  0
  5  7  1  0
  7  8  1  0
  8  9  1  0
  8 10  2  0
  9 11  1  0
 11 12  1  0
 12 13  2  0
 13 14  1  0
 14 15  2  0
 15 16  1  0
 16 17  2  0
 17 12  1  0
 15 18  1  0
 18 19  2  0
 18 20  1  0
 20 21  2  0
 21 22  1  0
 22 23  2  0
 23 24  1  0
 24 25  2  0
 25 26  1  0
 26 27  2  0
 27 22  1  0
  1 28  1  0
  2 29  1  0
 28 30  1  0
 29 31  1  0
 23 32  1  0
 27 33  1  0
M  END
>  <Curated_InChIs>  (104) 
InChI=1S/C25H21F2NO5/c1-31-23-13-8-17(14-24(23)32-2)28-25(30)15-33-18-9-6-16(7-10-18)22(29)12-11-19-20(26)4-3-5-21(19)27/h3-14H,15H2,1-2H3,(H,28,30)

>  <threshold>  (104) 
5

>  <pchembl>  (104) 
5.21

>  <Classification>  (104) 
1

>  <source>  (104) 
chembl_28

>  <SMILES>  (104) 
COc1ccc(NC(=O)COc2ccc(C(=O)/C=C/c3c(F)cccc3F)cc2)cc1OC

>  <InChIKey>  (104) 
MDYLOLPSQLFUCF-VAWYXSNFSA-N

$$$$

     RDKit          2D

 27 30  0  0  0  0  0  0  0  0999 V2000
   12.4541   -6.3450    0.0000 C   0  0  0  0  0  0  0  0  0  0  0  0
   11.7492   -5.9365    0.0000 C   0  0  0  0  0  0  0  0  0  0  0  0
   11.0401   -6.3450    0.0000 C   0  0  0  0  0  0  0  0  0  0  0  0
   11.0401   -7.1664    0.0000 C   0  0  0  0  0  0  0  0  0  0  0  0
   11.7492   -7.5750    0.0000 C   0  0  0  0  0  0  0  0  0  0  0  0
   12.4541   -7.1664    0.0000 C   0  0  0  0  0  0  0  0  0  0  0  0
   13.1632   -5.9365    0.0000 O   0  0  0  0  0  0  0  0  0  0  0  0
   10.3310   -7.5750    0.0000 N   0  0  0  0  0  0  0  0  0  0  0  0
   11.0401   -9.6179    0.0000 C   0  0  0  0  0  0  0  0  0  0  0  0
   10.3310  -10.0265    0.0000 N   0  0  0  0  0  0  0  0  0  0  0  0
    9.6219   -9.6179    0.0000 C   0  0  0  0  0  0  0  0  0  0  0  0
    9.6219   -8.8008    0.0000 C   0  0  0  0  0  0  0  0  0  0  0  0
   10.3310   -8.3922    0.0000 C   0  0  0  0  0  0  0  0  0  0  0  0
   11.0401   -8.8008    0.0000 N   0  0  0  0  0  0  0  0  0  0  0  0
    8.9169   -8.3922    0.0000 C   0  0  0  0  0  0  0  0  0  0  0  0
    8.2078   -8.8008    0.0000 C   0  0  0  0  0  0  0  0  0  0  0  0
    8.2078   -9.6179    0.0000 C   0  0  0  0  0  0  0  0  0  0  0  0
    8.9169  -10.0265    0.0000 N   0  0  0  0  0  0  0  0  0  0  0  0
   11.7492  -10.0265    0.0000 C   0  0  0  0  0  0  0  0  0  0  0  0
   11.7492  -10.8437    0.0000 C   0  0  0  0  0  0  0  0  0  0  0  0
   12.4541  -11.2523    0.0000 C   0  0  0  0  0  0  0  0  0  0  0  0
   13.1632  -10.8437    0.0000 C   0  0  0  0  0  0  0  0  0  0  0  0
   13.1632  -10.0265    0.0000 C   0  0  0  0  0  0  0  0  0  0  0  0
   12.4541   -9.6179    0.0000 C   0  0  0  0  0  0  0  0  0  0  0  0
   11.7492   -5.1193    0.0000 N   0  0  0  0  0  0  0  0  0  0  0  0
   12.4541   -4.7107    0.0000 O   0  0  0  0  0  0  0  0  0  0  0  0
   11.0401   -4.7107    0.0000 O   0  0  0  0  0  0  0  0  0  0  0  0
  1  2  2  0
  2  3  1  0
  3  4  2  0
  4  5  1  0
  5  6  2  0
  1  6  1  0
  1  7  1  0
  9 10  2  0
 10 11  1  0
 11 12  2  0
 12 13  1  0
 13 14  2  0
  9 14  1  0
 15 16  2  0
 16 17  1  0
 17 18  2  0
 11 18  1  0
 12 15  1  0
 19 20  2  0
 20 21  1  0
 21 22  2  0
 22 23  1  0
 23 24  2  0
 19 24  1  0
  9 19  1  0
  8 13  1  0
  4  8  1  0
 25 26  2  0
 25 27  1  0
  2 25  1  0
M  CHG  2  25   1  27  -1
M  END
>  <Curated_InChIs>  (105) 
InChI=1S/C19H13N5O3/c25-16-9-8-13(11-15(16)24(26)27)21-19-14-7-4-10-20-18(14)22-17(23-19)12-5-2-1-3-6-12/h1-11,25H,(H,20,21,22,23)

>  <threshold>  (105) 
5

>  <pchembl>  (105) 
6.28

>  <Classification>  (105) 
1

>  <source>  (105) 
chembl_28

>  <SMILES>  (105) 
O=[N+]([O-])c1cc(Nc2nc(-c3ccccc3)nc3ncccc23)ccc1O

>  <InChIKey>  (105) 
MESQGHGZZODEQW-UHFFFAOYSA-N

$$$$

     RDKit          2D

 19 21  0  0  0  0  0  0  0  0999 V2000
   12.7517  -11.3581    0.0000 C   0  0  0  0  0  0  0  0  0  0  0  0
   12.7506  -12.1776    0.0000 C   0  0  0  0  0  0  0  0  0  0  0  0
   13.4586  -12.5866    0.0000 C   0  0  0  0  0  0  0  0  0  0  0  0
   13.4568  -10.9492    0.0000 C   0  0  0  0  0  0  0  0  0  0  0  0
   14.1655  -11.3545    0.0000 C   0  0  0  0  0  0  0  0  0  0  0  0
   14.1662  -12.1735    0.0000 C   0  0  0  0  0  0  0  0  0  0  0  0
   14.8747  -12.5806    0.0000 N   0  0  0  0  0  0  0  0  0  0  0  0
   15.5830  -12.1698    0.0000 C   0  0  0  0  0  0  0  0  0  0  0  0
   15.5783  -11.3476    0.0000 N   0  0  0  0  0  0  0  0  0  0  0  0
   14.8692  -10.9443    0.0000 C   0  0  0  0  0  0  0  0  0  0  0  0
   14.8648  -10.1271    0.0000 N   0  0  0  0  0  0  0  0  0  0  0  0
   15.5704   -9.7147    0.0000 C   0  0  0  0  0  0  0  0  0  0  0  0
   16.2757  -10.1230    0.0000 C   0  0  0  0  0  0  0  0  0  0  0  0
   16.9807   -9.7113    0.0000 C   0  0  0  0  0  0  0  0  0  0  0  0
   16.9768   -8.8932    0.0000 C   0  0  0  0  0  0  0  0  0  0  0  0
   16.2620   -8.4886    0.0000 C   0  0  0  0  0  0  0  0  0  0  0  0
   15.5598   -8.9026    0.0000 C   0  0  0  0  0  0  0  0  0  0  0  0
   17.6796   -8.4779    0.0000 C   0  0  0  0  0  0  0  0  0  0  0  0
   18.3846   -8.0646    0.0000 N   0  0  0  0  0  0  0  0  0  0  0  0
  1  2  2  0
  2  3  1  0
  3  6  2  0
  5  4  2  0
  4  1  1  0
  5  6  1  0
  6  7  1  0
  7  8  2  0
  8  9  1  0
  9 10  2  0
 10  5  1  0
 10 11  1  0
 11 12  1  0
 12 13  2  0
 13 14  1  0
 14 15  2  0
 15 16  1  0
 16 17  2  0
 17 12  1  0
 18 19  3  0
 15 18  1  0
M  END
>  <Curated_InChIs>  (106) 
InChI=1S/C15H10N4/c16-9-11-5-7-12(8-6-11)19-15-13-3-1-2-4-14(13)17-10-18-15/h1-8,10H,(H,17,18,19)

>  <threshold>  (106) 
5

>  <pchembl>  (106) 
5.9

>  <Classification>  (106) 
1

>  <source>  (106) 
chembl_28

>  <SMILES>  (106) 
N#Cc1ccc(Nc2ncnc3ccccc23)cc1

>  <InChIKey>  (106) 
MHNVUCSIWIKLII-UHFFFAOYSA-N

$$$$

     RDKit          2D

 27 30  0  0  0  0  0  0  0  0999 V2000
   34.7664  -25.7704    0.0000 C   0  0  0  0  0  0  0  0  0  0  0  0
   34.7652  -26.5899    0.0000 C   0  0  0  0  0  0  0  0  0  0  0  0
   35.4733  -26.9989    0.0000 C   0  0  0  0  0  0  0  0  0  0  0  0
   35.4715  -25.3615    0.0000 C   0  0  0  0  0  0  0  0  0  0  0  0
   36.1801  -25.7668    0.0000 C   0  0  0  0  0  0  0  0  0  0  0  0
   36.1808  -26.5858    0.0000 C   0  0  0  0  0  0  0  0  0  0  0  0
   36.8894  -26.9929    0.0000 N   0  0  0  0  0  0  0  0  0  0  0  0
   37.5976  -26.5820    0.0000 C   0  0  0  0  0  0  0  0  0  0  0  0
   37.5929  -25.7599    0.0000 N   0  0  0  0  0  0  0  0  0  0  0  0
   36.8838  -25.3565    0.0000 C   0  0  0  0  0  0  0  0  0  0  0  0
   38.3111  -26.9850    0.0000 C   0  0  0  0  0  0  0  0  0  0  0  0
   36.8795  -24.5394    0.0000 N   0  0  0  0  0  0  0  0  0  0  0  0
   37.5850  -24.1270    0.0000 C   0  0  0  0  0  0  0  0  0  0  0  0
   38.2903  -24.5352    0.0000 C   0  0  0  0  0  0  0  0  0  0  0  0
   38.9953  -24.1236    0.0000 C   0  0  0  0  0  0  0  0  0  0  0  0
   38.9914  -23.3055    0.0000 C   0  0  0  0  0  0  0  0  0  0  0  0
   38.2766  -22.9009    0.0000 C   0  0  0  0  0  0  0  0  0  0  0  0
   37.5745  -23.3149    0.0000 C   0  0  0  0  0  0  0  0  0  0  0  0
   38.3139  -27.8043    0.0000 C   0  0  0  0  0  0  0  0  0  0  0  0
   39.0265  -28.2072    0.0000 C   0  0  0  0  0  0  0  0  0  0  0  0
   39.7332  -27.7908    0.0000 C   0  0  0  0  0  0  0  0  0  0  0  0
   39.7228  -26.9672    0.0000 C   0  0  0  0  0  0  0  0  0  0  0  0
   39.0097  -26.5680    0.0000 C   0  0  0  0  0  0  0  0  0  0  0  0
   36.1696  -24.1345    0.0000 C   0  0  0  0  0  0  0  0  0  0  0  0
   39.6993  -22.8914    0.0000 N   0  0  0  0  0  0  0  0  0  0  0  0
   39.6939  -22.0742    0.0000 O   0  0  0  0  0  0  0  0  0  0  0  0
   40.4097  -23.2953    0.0000 O   0  0  0  0  0  0  0  0  0  0  0  0
  1  2  2  0
  2  3  1  0
  3  6  2  0
  5  4  2  0
  4  1  1  0
  5  6  1  0
  6  7  1  0
  7  8  2  0
  8  9  1  0
  9 10  2  0
 10  5  1  0
  8 11  1  0
 10 12  1  0
 12 13  1  0
 13 14  2  0
 14 15  1  0
 15 16  2  0
 16 17  1  0
 17 18  2  0
 18 13  1  0
 11 19  2  0
 19 20  1  0
 20 21  2  0
 21 22  1  0
 22 23  2  0
 23 11  1  0
 12 24  1  0
 25 26  2  0
 25 27  1  0
 16 25  1  0
M  CHG  2  25   1  27  -1
M  END
>  <Curated_InChIs>  (107) 
InChI=1S/C21H16N4O2/c1-24(16-11-13-17(14-12-16)25(26)27)21-18-9-5-6-10-19(18)22-20(23-21)15-7-3-2-4-8-15/h2-14H,1H3

>  <threshold>  (107) 
5

>  <pchembl>  (107) 
5.43

>  <Classification>  (107) 
1

>  <source>  (107) 
chembl_28

>  <SMILES>  (107) 
CN(c1ccc([N+](=O)[O-])cc1)c1nc(-c2ccccc2)nc2ccccc12

>  <InChIKey>  (107) 
MHWRFOLRUNVDQH-UHFFFAOYSA-N

$$$$

     RDKit          2D

 24 27  0  0  0  0  0  0  0  0999 V2000
   -0.5500   -2.1292    0.0000 C   0  0  0  0  0  0  0  0  0  0  0  0
   -0.0333   -2.4292    0.0000 N   0  0  0  0  0  0  0  0  0  0  0  0
   -0.0333   -3.0375    0.0000 C   0  0  0  0  0  0  0  0  0  0  0  0
   -0.5500   -3.3375    0.0000 N   0  0  0  0  0  0  0  0  0  0  0  0
   -1.0708   -2.4375    0.0000 C   0  0  0  0  0  0  0  0  0  0  0  0
   -1.0708   -3.0375    0.0000 C   0  0  0  0  0  0  0  0  0  0  0  0
   -0.5583   -1.5292    0.0000 N   0  0  0  0  0  0  0  0  0  0  0  0
    0.4917   -3.3375    0.0000 C   0  0  0  0  0  0  0  0  0  0  0  0
   -0.0333   -1.2292    0.0000 C   0  0  0  0  0  0  0  0  0  0  0  0
    1.0000   -0.6292    0.0000 C   0  0  0  0  0  0  0  0  0  0  0  0
    1.5167   -0.3250    0.0000 Cl  0  0  0  0  0  0  0  0  0  0  0  0
   -0.0458   -0.6375    0.0000 C   0  0  0  0  0  0  0  0  0  0  0  0
    0.4792   -1.5292    0.0000 C   0  0  0  0  0  0  0  0  0  0  0  0
    1.0042   -1.2292    0.0000 C   0  0  0  0  0  0  0  0  0  0  0  0
    0.4750   -0.3292    0.0000 C   0  0  0  0  0  0  0  0  0  0  0  0
   -1.5833   -2.1375    0.0000 C   0  0  0  0  0  0  0  0  0  0  0  0
   -1.5833   -3.3375    0.0000 C   0  0  0  0  0  0  0  0  0  0  0  0
    0.4917   -3.9375    0.0000 C   0  0  0  0  0  0  0  0  0  0  0  0
    1.0042   -3.0292    0.0000 C   0  0  0  0  0  0  0  0  0  0  0  0
   -2.1083   -2.4292    0.0000 C   0  0  0  0  0  0  0  0  0  0  0  0
   -2.1083   -3.0375    0.0000 C   0  0  0  0  0  0  0  0  0  0  0  0
    1.5292   -3.3292    0.0000 C   0  0  0  0  0  0  0  0  0  0  0  0
    1.0125   -4.2292    0.0000 C   0  0  0  0  0  0  0  0  0  0  0  0
    1.5292   -3.9292    0.0000 C   0  0  0  0  0  0  0  0  0  0  0  0
  2  1  2  0
  3  2  1  0
  4  6  1  0
  5  1  1  0
  6  5  2  0
  7  1  1  0
  8  3  1  0
  9  7  1  0
 10 14  2  0
 11 10  1  0
 12  9  1  0
 13  9  2  0
 14 13  1  0
 15 12  2  0
 16  5  1  0
 17  6  1  0
 18  8  2  0
 19  8  1  0
 20 16  2  0
 21 20  1  0
 22 19  2  0
 23 18  1  0
 24 22  1  0
  4  3  2  0
 15 10  1  0
 21 17  2  0
 23 24  2  0
M  END
>  <Curated_InChIs>  (108) 
InChI=1S/C20H14ClN3/c21-15-10-12-16(13-11-15)22-20-17-8-4-5-9-18(17)23-19(24-20)14-6-2-1-3-7-14/h1-13H,(H,22,23,24)

>  <threshold>  (108) 
5

>  <pchembl>  (108) 
6.08

>  <Classification>  (108) 
1

>  <source>  (108) 
chembl_28

>  <SMILES>  (108) 
Clc1ccc(Nc2nc(-c3ccccc3)nc3ccccc23)cc1

>  <InChIKey>  (108) 
MIMFNRPHMYSQMK-UHFFFAOYSA-N

$$$$

     RDKit          2D

 27 30  0  0  0  0  0  0  0  0999 V2000
   33.9615  -20.4297    0.0000 C   0  0  0  0  0  0  0  0  0  0  0  0
   33.9604  -21.2493    0.0000 C   0  0  0  0  0  0  0  0  0  0  0  0
   34.6684  -21.6582    0.0000 C   0  0  0  0  0  0  0  0  0  0  0  0
   34.6667  -20.0209    0.0000 C   0  0  0  0  0  0  0  0  0  0  0  0
   35.3753  -20.4261    0.0000 C   0  0  0  0  0  0  0  0  0  0  0  0
   35.3760  -21.2452    0.0000 C   0  0  0  0  0  0  0  0  0  0  0  0
   36.0846  -21.6522    0.0000 N   0  0  0  0  0  0  0  0  0  0  0  0
   36.7928  -21.2414    0.0000 C   0  0  0  0  0  0  0  0  0  0  0  0
   36.7881  -20.4193    0.0000 C   0  0  0  0  0  0  0  0  0  0  0  0
   36.0790  -20.0159    0.0000 C   0  0  0  0  0  0  0  0  0  0  0  0
   36.0747  -19.1987    0.0000 N   0  0  0  0  0  0  0  0  0  0  0  0
   36.7802  -18.7864    0.0000 C   0  0  0  0  0  0  0  0  0  0  0  0
   37.4855  -19.1946    0.0000 C   0  0  0  0  0  0  0  0  0  0  0  0
   38.1905  -18.7829    0.0000 C   0  0  0  0  0  0  0  0  0  0  0  0
   38.1866  -17.9649    0.0000 C   0  0  0  0  0  0  0  0  0  0  0  0
   37.4718  -17.5602    0.0000 C   0  0  0  0  0  0  0  0  0  0  0  0
   36.7697  -17.9742    0.0000 C   0  0  0  0  0  0  0  0  0  0  0  0
   37.4986  -21.6432    0.0000 C   0  0  0  0  0  0  0  0  0  0  0  0
   37.5004  -22.4615    0.0000 C   0  0  0  0  0  0  0  0  0  0  0  0
   38.2089  -22.8672    0.0000 C   0  0  0  0  0  0  0  0  0  0  0  0
   38.9160  -22.4558    0.0000 C   0  0  0  0  0  0  0  0  0  0  0  0
   38.9101  -21.6344    0.0000 C   0  0  0  0  0  0  0  0  0  0  0  0
   38.2011  -21.2324    0.0000 C   0  0  0  0  0  0  0  0  0  0  0  0
   38.9002  -19.1881    0.0000 N   0  0  0  0  0  0  0  0  0  0  0  0
   39.6059  -18.7761    0.0000 C   0  0  0  0  0  0  0  0  0  0  0  0
   40.3156  -19.1813    0.0000 C   0  0  0  0  0  0  0  0  0  0  0  0
   39.6020  -17.9589    0.0000 O   0  0  0  0  0  0  0  0  0  0  0  0
  1  2  2  0
  2  3  1  0
  3  6  2  0
  5  4  2  0
  4  1  1  0
  5  6  1  0
  6  7  1  0
  7  8  2  0
  8  9  1  0
  9 10  2  0
 10  5  1  0
 10 11  1  0
 11 12  1  0
 12 13  2  0
 13 14  1  0
 14 15  2  0
 15 16  1  0
 16 17  2  0
 17 12  1  0
 18 19  2  0
 19 20  1  0
 20 21  2  0
 21 22  1  0
 22 23  2  0
 23 18  1  0
  8 18  1  0
 14 24  1  0
 24 25  1  0
 25 26  1  0
 25 27  2  0
M  END
>  <Curated_InChIs>  (109) 
InChI=1S/C23H19N3O/c1-16(27)24-18-10-7-11-19(14-18)25-23-15-22(17-8-3-2-4-9-17)26-21-13-6-5-12-20(21)23/h2-15H,1H3,(H,24,27)(H,25,26)

>  <threshold>  (109) 
5

>  <pchembl>  (109) 
5.79

>  <Classification>  (109) 
1

>  <source>  (109) 
chembl_28

>  <SMILES>  (109) 
CC(=O)Nc1cccc(Nc2cc(-c3ccccc3)nc3ccccc23)c1

>  <InChIKey>  (109) 
MNCWMFWUVKUNLT-UHFFFAOYSA-N

$$$$

     RDKit          2D

 29 33  0  0  0  0  0  0  0  0999 V2000
    3.5026  -19.9551    0.0000 C   0  0  0  0  0  0  0  0  0  0  0  0
    3.5015  -20.7746    0.0000 C   0  0  0  0  0  0  0  0  0  0  0  0
    4.2095  -21.1836    0.0000 C   0  0  0  0  0  0  0  0  0  0  0  0
    4.2077  -19.5463    0.0000 C   0  0  0  0  0  0  0  0  0  0  0  0
    4.9163  -19.9515    0.0000 C   0  0  0  0  0  0  0  0  0  0  0  0
    4.9166  -20.7747    0.0000 C   0  0  0  0  0  0  0  0  0  0  0  0
    5.6996  -21.0289    0.0000 N   0  0  0  0  0  0  0  0  0  0  0  0
    5.6991  -19.6970    0.0000 C   0  0  0  0  0  0  0  0  0  0  0  0
    6.1833  -20.3641    0.0000 C   0  0  0  0  0  0  0  0  0  0  0  0
    6.9986  -20.2788    0.0000 C   0  0  0  0  0  0  0  0  0  0  0  0
    7.3361  -19.5274    0.0000 N   0  0  0  0  0  0  0  0  0  0  0  0
    6.8519  -18.8603    0.0000 C   0  0  0  0  0  0  0  0  0  0  0  0
    6.0303  -18.9446    0.0000 C   0  0  0  0  0  0  0  0  0  0  0  0
    8.1490  -19.4435    0.0000 C   0  0  0  0  0  0  0  0  0  0  0  0
    8.6281  -20.1055    0.0000 O   0  0  0  0  0  0  0  0  0  0  0  0
    8.4828  -18.6976    0.0000 C   0  0  0  0  0  0  0  0  0  0  0  0
    9.2959  -18.6177    0.0000 C   0  0  0  0  0  0  0  0  0  0  0  0
    9.6297  -17.8727    0.0000 C   0  0  0  0  0  0  0  0  0  0  0  0
    9.1504  -17.2097    0.0000 C   0  0  0  0  0  0  0  0  0  0  0  0
    8.3336  -17.2966    0.0000 C   0  0  0  0  0  0  0  0  0  0  0  0
    8.0035  -18.0419    0.0000 C   0  0  0  0  0  0  0  0  0  0  0  0
    7.4786  -20.9375    0.0000 C   0  0  0  0  0  0  0  0  0  0  0  0
    7.1431  -21.6838    0.0000 C   0  0  0  0  0  0  0  0  0  0  0  0
    7.6215  -22.3454    0.0000 C   0  0  0  0  0  0  0  0  0  0  0  0
    8.4353  -22.2619    0.0000 C   0  0  0  0  0  0  0  0  0  0  0  0
    8.7684  -21.5110    0.0000 C   0  0  0  0  0  0  0  0  0  0  0  0
    8.2880  -20.8526    0.0000 C   0  0  0  0  0  0  0  0  0  0  0  0
    8.9152  -22.9233    0.0000 O   0  0  0  0  0  0  0  0  0  0  0  0
    8.5825  -23.6696    0.0000 C   0  0  0  0  0  0  0  0  0  0  0  0
  1  2  2  0
  2  3  1  0
  3  6  2  0
  5  4  2  0
  4  1  1  0
  5  6  1  0
  6  7  1  0
  7  9  1  0
  8  5  1  0
  8  9  2  0
  8 13  1  0
  9 10  1  0
 10 11  1  0
 11 12  1  0
 12 13  1  0
 11 14  1  0
 14 15  2  0
 14 16  1  0
 16 17  2  0
 17 18  1  0
 18 19  2  0
 19 20  1  0
 20 21  2  0
 21 16  1  0
 22 23  2  0
 23 24  1  0
 24 25  2  0
 25 26  1  0
 26 27  2  0
 27 22  1  0
 10 22  1  0
 25 28  1  0
 28 29  1  0
M  END
>  <Curated_InChIs>  (110) 
InChI=1S/C25H22N2O2/c1-29-19-13-11-17(12-14-19)24-23-21(20-9-5-6-10-22(20)26-23)15-16-27(24)25(28)18-7-3-2-4-8-18/h2-14,24,26H,15-16H2,1H3

>  <threshold>  (110) 
5

>  <pchembl>  (110) 
5.66

>  <Classification>  (110) 
1

>  <source>  (110) 
chembl_28

>  <SMILES>  (110) 
COc1ccc(C2c3[nH]c4ccccc4c3CCN2C(=O)c2ccccc2)cc1

>  <InChIKey>  (110) 
MUYUCUMUFOGWMY-UHFFFAOYSA-N

$$$$

     RDKit          2D

 24 27  0  0  0  0  0  0  0  0999 V2000
    1.4390   -4.4244    0.0000 C   0  0  0  0  0  0  0  0  0  0  0  0
    1.4378   -5.2439    0.0000 C   0  0  0  0  0  0  0  0  0  0  0  0
    2.1459   -5.6529    0.0000 C   0  0  0  0  0  0  0  0  0  0  0  0
    2.1441   -4.0155    0.0000 C   0  0  0  0  0  0  0  0  0  0  0  0
    2.8527   -4.4208    0.0000 C   0  0  0  0  0  0  0  0  0  0  0  0
    2.8535   -5.2398    0.0000 C   0  0  0  0  0  0  0  0  0  0  0  0
    3.5620   -5.6468    0.0000 N   0  0  0  0  0  0  0  0  0  0  0  0
    4.2703   -5.2360    0.0000 C   0  0  0  0  0  0  0  0  0  0  0  0
    4.2655   -4.4139    0.0000 N   0  0  0  0  0  0  0  0  0  0  0  0
    3.5564   -4.0105    0.0000 C   0  0  0  0  0  0  0  0  0  0  0  0
    3.5521   -3.1933    0.0000 N   0  0  0  0  0  0  0  0  0  0  0  0
    4.2576   -2.7810    0.0000 C   0  0  0  0  0  0  0  0  0  0  0  0
    4.9629   -3.1892    0.0000 C   0  0  0  0  0  0  0  0  0  0  0  0
    5.6680   -2.7776    0.0000 C   0  0  0  0  0  0  0  0  0  0  0  0
    5.6641   -1.9595    0.0000 C   0  0  0  0  0  0  0  0  0  0  0  0
    4.9492   -1.5549    0.0000 C   0  0  0  0  0  0  0  0  0  0  0  0
    4.2471   -1.9688    0.0000 C   0  0  0  0  0  0  0  0  0  0  0  0
    4.9760   -5.6378    0.0000 C   0  0  0  0  0  0  0  0  0  0  0  0
    4.9779   -6.4561    0.0000 C   0  0  0  0  0  0  0  0  0  0  0  0
    5.6863   -6.8618    0.0000 C   0  0  0  0  0  0  0  0  0  0  0  0
    6.3934   -6.4504    0.0000 C   0  0  0  0  0  0  0  0  0  0  0  0
    6.3876   -5.6290    0.0000 C   0  0  0  0  0  0  0  0  0  0  0  0
    5.6786   -5.2270    0.0000 C   0  0  0  0  0  0  0  0  0  0  0  0
    6.3691   -1.5462    0.0000 F   0  0  0  0  0  0  0  0  0  0  0  0
  1  2  2  0
  2  3  1  0
  3  6  2  0
  5  4  2  0
  4  1  1  0
  5  6  1  0
  6  7  1  0
  7  8  2  0
  8  9  1  0
  9 10  2  0
 10  5  1  0
 10 11  1  0
 11 12  1  0
 12 13  2  0
 13 14  1  0
 14 15  2  0
 15 16  1  0
 16 17  2  0
 17 12  1  0
 18 19  2  0
 19 20  1  0
 20 21  2  0
 21 22  1  0
 22 23  2  0
 23 18  1  0
  8 18  1  0
 15 24  1  0
M  END
>  <Curated_InChIs>  (111) 
InChI=1S/C20H14FN3/c21-15-10-12-16(13-11-15)22-20-17-8-4-5-9-18(17)23-19(24-20)14-6-2-1-3-7-14/h1-13H,(H,22,23,24)

>  <threshold>  (111) 
5

>  <pchembl>  (111) 
5.97

>  <Classification>  (111) 
1

>  <source>  (111) 
chembl_28

>  <SMILES>  (111) 
Fc1ccc(Nc2nc(-c3ccccc3)nc3ccccc23)cc1

>  <InChIKey>  (111) 
NCVDEOTVKZRNHX-UHFFFAOYSA-N

$$$$

     RDKit          2D

 32 35  0  0  0  0  0  0  0  0999 V2000
   13.3307   -9.9271    0.0000 N   0  0  0  0  0  0  0  0  0  0  0  0
   13.3134  -10.7441    0.0000 C   0  0  0  0  0  0  0  0  0  0  0  0
   14.0157  -11.1670    0.0000 O   0  0  0  0  0  0  0  0  0  0  0  0
   12.5978  -11.1423    0.0000 N   0  0  0  0  0  0  0  0  0  0  0  0
   12.5847  -11.9593    0.0000 C   0  0  0  0  0  0  0  0  0  0  0  0
   11.8692  -12.3534    0.0000 C   0  0  0  0  0  0  0  0  0  0  0  0
   11.8560  -13.1704    0.0000 C   0  0  0  0  0  0  0  0  0  0  0  0
   12.5583  -13.5933    0.0000 C   0  0  0  0  0  0  0  0  0  0  0  0
   13.2697  -13.1951    0.0000 C   0  0  0  0  0  0  0  0  0  0  0  0
   13.2870  -12.3781    0.0000 C   0  0  0  0  0  0  0  0  0  0  0  0
   11.1709  -11.9345    0.0000 N   0  0  0  0  0  0  0  0  0  0  0  0
   11.1841  -11.1175    0.0000 O   0  0  0  0  0  0  0  0  0  0  0  0
   10.4554  -12.3286    0.0000 O   0  0  0  0  0  0  0  0  0  0  0  0
   12.6283   -9.5083    0.0000 C   0  0  0  0  0  0  0  0  0  0  0  0
   12.6415   -8.6913    0.0000 C   0  0  0  0  0  0  0  0  0  0  0  0
   11.9433   -8.2683    0.0000 C   0  0  0  0  0  0  0  0  0  0  0  0
   11.2278   -8.6665    0.0000 C   0  0  0  0  0  0  0  0  0  0  0  0
   11.2105   -9.4835    0.0000 C   0  0  0  0  0  0  0  0  0  0  0  0
   11.9128   -9.9023    0.0000 C   0  0  0  0  0  0  0  0  0  0  0  0
   14.0954   -8.6387    0.0000 N   0  0  0  0  0  0  0  0  0  0  0  0
   14.6549   -8.0426    0.0000 N   0  0  0  0  0  0  0  0  0  0  0  0
   14.2567   -7.3271    0.0000 N   0  0  0  0  0  0  0  0  0  0  0  0
   13.4582   -7.4851    0.0000 N   0  0  0  0  0  0  0  0  0  0  0  0
   13.3570   -8.2931    0.0000 C   0  0  0  0  0  0  0  0  0  0  0  0
   15.4670   -8.1396    0.0000 C   0  0  0  0  0  0  0  0  0  0  0  0
   15.7859   -8.8913    0.0000 C   0  0  0  0  0  0  0  0  0  0  0  0
   16.5980   -8.9925    0.0000 C   0  0  0  0  0  0  0  0  0  0  0  0
   17.0871   -8.3420    0.0000 C   0  0  0  0  0  0  0  0  0  0  0  0
   16.7683   -7.5862    0.0000 C   0  0  0  0  0  0  0  0  0  0  0  0
   15.9561   -7.4891    0.0000 C   0  0  0  0  0  0  0  0  0  0  0  0
   16.9169   -9.7442    0.0000 O   0  0  0  0  0  0  0  0  0  0  0  0
   17.7249   -9.8454    0.0000 C   0  0  0  0  0  0  0  0  0  0  0  0
  1  2  1  0
  2  3  2  0
  2  4  1  0
  5  6  2  0
  6  7  1  0
  7  8  2  0
  8  9  1  0
  9 10  2  0
  5 10  1  0
 11 12  2  0
 11 13  1  0
  6 11  1  0
  4  5  1  0
 14 15  1  0
 15 16  2  0
 16 17  1  0
 17 18  2  0
 18 19  1  0
 14 19  2  0
 20 21  1  0
 21 22  1  0
 22 23  2  0
 23 24  1  0
 20 24  2  0
 25 26  2  0
 26 27  1  0
 27 28  2  0
 28 29  1  0
 29 30  2  0
 25 30  1  0
 31 32  1  0
 27 31  1  0
 21 25  1  0
 15 24  1  0
  1 14  1  0
M  CHG  2  11   1  13  -1
M  END
>  <Curated_InChIs>  (112) 
InChI=1S/C21H17N7O4/c1-32-15-8-6-7-14(13-15)27-25-20(24-26-27)16-9-2-3-10-17(16)22-21(29)23-18-11-4-5-12-19(18)28(30)31/h2-13H,1H3,(H2,22,23,29)

>  <threshold>  (112) 
5

>  <pchembl>  (112) 
6.01, 6.05, 5.93

>  <Classification>  (112) 
1

>  <source>  (112) 
chembl_28

>  <SMILES>  (112) 
COc1cccc(-n2nnc(-c3ccccc3NC(=O)Nc3ccccc3[N+](=O)[O-])n2)c1

>  <InChIKey>  (112) 
NLOHMGLKEDWSDR-UHFFFAOYSA-N

$$$$

     RDKit          2D

 28 32  0  0  0  0  0  0  0  0999 V2000
   30.7795   -6.5829    0.0000 C   0  0  0  0  0  0  0  0  0  0  0  0
   30.7783   -7.4024    0.0000 C   0  0  0  0  0  0  0  0  0  0  0  0
   31.4864   -7.8114    0.0000 C   0  0  0  0  0  0  0  0  0  0  0  0
   31.4846   -6.1740    0.0000 C   0  0  0  0  0  0  0  0  0  0  0  0
   32.1932   -6.5793    0.0000 C   0  0  0  0  0  0  0  0  0  0  0  0
   32.1934   -7.4025    0.0000 C   0  0  0  0  0  0  0  0  0  0  0  0
   32.9764   -7.6566    0.0000 N   0  0  0  0  0  0  0  0  0  0  0  0
   32.9760   -6.3247    0.0000 C   0  0  0  0  0  0  0  0  0  0  0  0
   33.4602   -6.9919    0.0000 C   0  0  0  0  0  0  0  0  0  0  0  0
   34.2755   -6.9066    0.0000 C   0  0  0  0  0  0  0  0  0  0  0  0
   34.6130   -6.1552    0.0000 N   0  0  0  0  0  0  0  0  0  0  0  0
   34.1288   -5.4881    0.0000 C   0  0  0  0  0  0  0  0  0  0  0  0
   33.3071   -5.5724    0.0000 C   0  0  0  0  0  0  0  0  0  0  0  0
   35.4258   -6.0713    0.0000 C   0  0  0  0  0  0  0  0  0  0  0  0
   35.9049   -6.7333    0.0000 O   0  0  0  0  0  0  0  0  0  0  0  0
   35.7596   -5.3254    0.0000 C   0  0  0  0  0  0  0  0  0  0  0  0
   36.5727   -5.2455    0.0000 C   0  0  0  0  0  0  0  0  0  0  0  0
   36.9065   -4.5004    0.0000 C   0  0  0  0  0  0  0  0  0  0  0  0
   36.4273   -3.8374    0.0000 C   0  0  0  0  0  0  0  0  0  0  0  0
   35.6104   -3.9244    0.0000 C   0  0  0  0  0  0  0  0  0  0  0  0
   35.2804   -4.6697    0.0000 C   0  0  0  0  0  0  0  0  0  0  0  0
   34.7554   -7.5652    0.0000 C   0  0  0  0  0  0  0  0  0  0  0  0
   34.4200   -8.3116    0.0000 C   0  0  0  0  0  0  0  0  0  0  0  0
   34.8983   -8.9732    0.0000 C   0  0  0  0  0  0  0  0  0  0  0  0
   35.7121   -8.8897    0.0000 C   0  0  0  0  0  0  0  0  0  0  0  0
   36.0452   -8.1388    0.0000 C   0  0  0  0  0  0  0  0  0  0  0  0
   35.5648   -7.4804    0.0000 C   0  0  0  0  0  0  0  0  0  0  0  0
   36.1921   -9.5511    0.0000 F   0  0  0  0  0  0  0  0  0  0  0  0
  1  2  2  0
  2  3  1  0
  3  6  2  0
  5  4  2  0
  4  1  1  0
  5  6  1  0
  6  7  1  0
  7  9  1  0
  8  5  1  0
  8  9  2  0
  8 13  1  0
  9 10  1  0
 10 11  1  0
 11 12  1  0
 12 13  1  0
 11 14  1  0
 14 15  2  0
 14 16  1  0
 16 17  2  0
 17 18  1  0
 18 19  2  0
 19 20  1  0
 20 21  2  0
 21 16  1  0
 22 23  2  0
 23 24  1  0
 24 25  2  0
 25 26  1  0
 26 27  2  0
 27 22  1  0
 10 22  1  0
 25 28  1  0
M  END
>  <Curated_InChIs>  (113) 
InChI=1S/C24H19FN2O/c25-18-12-10-16(11-13-18)23-22-20(19-8-4-5-9-21(19)26-22)14-15-27(23)24(28)17-6-2-1-3-7-17/h1-13,23,26H,14-15H2

>  <threshold>  (113) 
5

>  <pchembl>  (113) 
5.72

>  <Classification>  (113) 
1

>  <source>  (113) 
chembl_28

>  <SMILES>  (113) 
O=C(c1ccccc1)N1CCc2c([nH]c3ccccc23)C1c1ccc(F)cc1

>  <InChIKey>  (113) 
NMKIACQDOHUVIS-UHFFFAOYSA-N

$$$$

     RDKit          2D

 33 37  0  0  0  0  0  0  0  0999 V2000
    2.1943  -11.9235    0.0000 C   0  0  0  0  0  0  0  0  0  0  0  0
    2.1931  -12.7431    0.0000 C   0  0  0  0  0  0  0  0  0  0  0  0
    2.9012  -13.1520    0.0000 C   0  0  0  0  0  0  0  0  0  0  0  0
    2.8994  -11.5147    0.0000 C   0  0  0  0  0  0  0  0  0  0  0  0
    3.6080  -11.9199    0.0000 C   0  0  0  0  0  0  0  0  0  0  0  0
    3.6083  -12.7431    0.0000 C   0  0  0  0  0  0  0  0  0  0  0  0
    4.3912  -12.9973    0.0000 N   0  0  0  0  0  0  0  0  0  0  0  0
    4.3908  -11.6654    0.0000 C   0  0  0  0  0  0  0  0  0  0  0  0
    4.8750  -12.3325    0.0000 C   0  0  0  0  0  0  0  0  0  0  0  0
    5.6903  -12.2472    0.0000 C   0  0  0  0  0  0  0  0  0  0  0  0
    6.0278  -11.4958    0.0000 N   0  0  0  0  0  0  0  0  0  0  0  0
    5.5436  -10.8287    0.0000 C   0  0  0  0  0  0  0  0  0  0  0  0
    4.7219  -10.9130    0.0000 C   0  0  0  0  0  0  0  0  0  0  0  0
    6.8406  -11.4119    0.0000 C   0  0  0  0  0  0  0  0  0  0  0  0
    7.3197  -12.0739    0.0000 O   0  0  0  0  0  0  0  0  0  0  0  0
    7.1744  -10.6660    0.0000 C   0  0  0  0  0  0  0  0  0  0  0  0
    7.9875  -10.5862    0.0000 C   0  0  0  0  0  0  0  0  0  0  0  0
    8.3213   -9.8411    0.0000 C   0  0  0  0  0  0  0  0  0  0  0  0
    7.8421   -9.1781    0.0000 C   0  0  0  0  0  0  0  0  0  0  0  0
    7.0253   -9.2650    0.0000 C   0  0  0  0  0  0  0  0  0  0  0  0
    6.6952  -10.0103    0.0000 C   0  0  0  0  0  0  0  0  0  0  0  0
    6.1702  -12.9059    0.0000 C   0  0  0  0  0  0  0  0  0  0  0  0
    5.8348  -13.6522    0.0000 C   0  0  0  0  0  0  0  0  0  0  0  0
    6.3131  -14.3139    0.0000 C   0  0  0  0  0  0  0  0  0  0  0  0
    7.1269  -14.2303    0.0000 C   0  0  0  0  0  0  0  0  0  0  0  0
    7.4600  -13.4795    0.0000 C   0  0  0  0  0  0  0  0  0  0  0  0
    6.9796  -12.8210    0.0000 C   0  0  0  0  0  0  0  0  0  0  0  0
    8.1749   -8.4317    0.0000 O   0  0  0  0  0  0  0  0  0  0  0  0
    8.9876   -8.3467    0.0000 C   0  0  0  0  0  0  0  0  0  0  0  0
    7.6069  -14.8917    0.0000 C   0  0  0  0  0  0  0  0  0  0  0  0
    7.2741  -15.6380    0.0000 F   0  0  0  0  0  0  0  0  0  0  0  0
    8.4197  -14.8067    0.0000 F   0  0  0  0  0  0  0  0  0  0  0  0
    8.0110  -15.5968    0.0000 F   0  0  0  0  0  0  0  0  0  0  0  0
  1  2  2  0
  2  3  1  0
  3  6  2  0
  5  4  2  0
  4  1  1  0
  5  6  1  0
  6  7  1  0
  7  9  1  0
  8  5  1  0
  8  9  2  0
  8 13  1  0
  9 10  1  0
 10 11  1  0
 11 12  1  0
 12 13  1  0
 11 14  1  0
 14 15  2  0
 14 16  1  0
 16 17  2  0
 17 18  1  0
 18 19  2  0
 19 20  1  0
 20 21  2  0
 21 16  1  0
 22 23  2  0
 23 24  1  0
 24 25  2  0
 25 26  1  0
 26 27  2  0
 27 22  1  0
 10 22  1  0
 19 28  1  0
 28 29  1  0
 25 30  1  0
 30 31  1  0
 30 32  1  0
 30 33  1  0
M  END
>  <Curated_InChIs>  (114) 
InChI=1S/C26H21F3N2O2/c1-33-19-12-8-17(9-13-19)25(32)31-15-14-21-20-4-2-3-5-22(20)30-23(21)24(31)16-6-10-18(11-7-16)26(27,28)29/h2-13,24,30H,14-15H2,1H3

>  <threshold>  (114) 
5

>  <pchembl>  (114) 
5.91

>  <Classification>  (114) 
1

>  <source>  (114) 
chembl_28

>  <SMILES>  (114) 
COc1ccc(C(=O)N2CCc3c([nH]c4ccccc34)C2c2ccc(C(F)(F)F)cc2)cc1

>  <InChIKey>  (114) 
NPJYCDNFRPNSQU-UHFFFAOYSA-N

$$$$

     RDKit          2D

 23 26  0  0  0  0  0  0  0  0999 V2000
   35.3731   -3.7434    0.0000 C   0  0  0  0  0  0  0  0  0  0  0  0
   35.3719   -4.5629    0.0000 C   0  0  0  0  0  0  0  0  0  0  0  0
   36.0800   -4.9719    0.0000 C   0  0  0  0  0  0  0  0  0  0  0  0
   36.0782   -3.3345    0.0000 C   0  0  0  0  0  0  0  0  0  0  0  0
   36.7868   -3.7398    0.0000 C   0  0  0  0  0  0  0  0  0  0  0  0
   36.7875   -4.5588    0.0000 C   0  0  0  0  0  0  0  0  0  0  0  0
   37.4961   -4.9658    0.0000 N   0  0  0  0  0  0  0  0  0  0  0  0
   38.2043   -4.5550    0.0000 C   0  0  0  0  0  0  0  0  0  0  0  0
   38.1996   -3.7329    0.0000 N   0  0  0  0  0  0  0  0  0  0  0  0
   37.4905   -3.3295    0.0000 C   0  0  0  0  0  0  0  0  0  0  0  0
   38.9178   -4.9580    0.0000 C   0  0  0  0  0  0  0  0  0  0  0  0
   39.0064   -5.7704    0.0000 C   0  0  0  0  0  0  0  0  0  0  0  0
   39.8064   -5.9372    0.0000 C   0  0  0  0  0  0  0  0  0  0  0  0
   40.2123   -5.2278    0.0000 C   0  0  0  0  0  0  0  0  0  0  0  0
   39.6630   -4.6228    0.0000 S   0  0  0  0  0  0  0  0  0  0  0  0
   37.4862   -2.5123    0.0000 N   0  0  0  0  0  0  0  0  0  0  0  0
   38.1917   -2.1000    0.0000 C   0  0  0  0  0  0  0  0  0  0  0  0
   38.8970   -2.5082    0.0000 C   0  0  0  0  0  0  0  0  0  0  0  0
   39.6020   -2.0966    0.0000 C   0  0  0  0  0  0  0  0  0  0  0  0
   39.5981   -1.2785    0.0000 C   0  0  0  0  0  0  0  0  0  0  0  0
   38.8833   -0.8739    0.0000 C   0  0  0  0  0  0  0  0  0  0  0  0
   38.1812   -1.2879    0.0000 C   0  0  0  0  0  0  0  0  0  0  0  0
   40.3117   -2.5017    0.0000 F   0  0  0  0  0  0  0  0  0  0  0  0
  1  2  2  0
  2  3  1  0
  3  6  2  0
  5  4  2  0
  4  1  1  0
  5  6  1  0
  6  7  1  0
  7  8  2  0
  8  9  1  0
  9 10  2  0
 10  5  1  0
 11 12  2  0
 12 13  1  0
 13 14  2  0
 14 15  1  0
 15 11  1  0
  8 11  1  0
 10 16  1  0
 16 17  1  0
 17 18  2  0
 18 19  1  0
 19 20  2  0
 20 21  1  0
 21 22  2  0
 22 17  1  0
 19 23  1  0
M  END
>  <Curated_InChIs>  (115) 
InChI=1S/C18H12FN3S/c19-12-5-3-6-13(11-12)20-17-14-7-1-2-8-15(14)21-18(22-17)16-9-4-10-23-16/h1-11H,(H,20,21,22)

>  <threshold>  (115) 
5

>  <pchembl>  (115) 
6.02

>  <Classification>  (115) 
1

>  <source>  (115) 
chembl_28

>  <SMILES>  (115) 
Fc1cccc(Nc2nc(-c3cccs3)nc3ccccc23)c1

>  <InChIKey>  (115) 
NSQWLVVXRASFFJ-UHFFFAOYSA-N

$$$$

     RDKit          2D

 28 32  0  0  0  0  0  0  0  0999 V2000
    3.9483  -17.1197    0.0000 C   0  0  0  0  0  0  0  0  0  0  0  0
    3.9472  -17.9392    0.0000 C   0  0  0  0  0  0  0  0  0  0  0  0
    4.6552  -18.3482    0.0000 C   0  0  0  0  0  0  0  0  0  0  0  0
    4.6535  -16.7108    0.0000 C   0  0  0  0  0  0  0  0  0  0  0  0
    5.3621  -17.1161    0.0000 C   0  0  0  0  0  0  0  0  0  0  0  0
    5.3623  -17.9393    0.0000 C   0  0  0  0  0  0  0  0  0  0  0  0
    6.1453  -18.1935    0.0000 N   0  0  0  0  0  0  0  0  0  0  0  0
    6.1449  -16.8616    0.0000 C   0  0  0  0  0  0  0  0  0  0  0  0
    6.6291  -17.5287    0.0000 C   0  0  0  0  0  0  0  0  0  0  0  0
    7.4444  -17.4434    0.0000 C   0  0  0  0  0  0  0  0  0  0  0  0
    7.7818  -16.6920    0.0000 N   0  0  0  0  0  0  0  0  0  0  0  0
    7.2977  -16.0249    0.0000 C   0  0  0  0  0  0  0  0  0  0  0  0
    6.4760  -16.1092    0.0000 C   0  0  0  0  0  0  0  0  0  0  0  0
    8.5947  -16.6081    0.0000 C   0  0  0  0  0  0  0  0  0  0  0  0
    9.0738  -17.2701    0.0000 O   0  0  0  0  0  0  0  0  0  0  0  0
    8.9285  -15.8622    0.0000 C   0  0  0  0  0  0  0  0  0  0  0  0
    9.7416  -15.7823    0.0000 C   0  0  0  0  0  0  0  0  0  0  0  0
   10.0754  -15.0373    0.0000 C   0  0  0  0  0  0  0  0  0  0  0  0
    9.5961  -14.3743    0.0000 C   0  0  0  0  0  0  0  0  0  0  0  0
    8.7793  -14.4612    0.0000 C   0  0  0  0  0  0  0  0  0  0  0  0
    8.4493  -15.2065    0.0000 C   0  0  0  0  0  0  0  0  0  0  0  0
    7.9243  -18.1020    0.0000 C   0  0  0  0  0  0  0  0  0  0  0  0
    7.5889  -18.8484    0.0000 C   0  0  0  0  0  0  0  0  0  0  0  0
    8.0672  -19.5100    0.0000 C   0  0  0  0  0  0  0  0  0  0  0  0
    8.8810  -19.4265    0.0000 C   0  0  0  0  0  0  0  0  0  0  0  0
    9.2141  -18.6756    0.0000 C   0  0  0  0  0  0  0  0  0  0  0  0
    8.7337  -18.0172    0.0000 C   0  0  0  0  0  0  0  0  0  0  0  0
    7.7331  -20.2558    0.0000 Cl  0  0  0  0  0  0  0  0  0  0  0  0
  1  2  2  0
  2  3  1  0
  3  6  2  0
  5  4  2  0
  4  1  1  0
  5  6  1  0
  6  7  1  0
  7  9  1  0
  8  5  1  0
  8  9  2  0
  8 13  1  0
  9 10  1  0
 10 11  1  0
 11 12  1  0
 12 13  1  0
 11 14  1  0
 14 15  2  0
 14 16  1  0
 16 17  2  0
 17 18  1  0
 18 19  2  0
 19 20  1  0
 20 21  2  0
 21 16  1  0
 22 23  2  0
 23 24  1  0
 24 25  2  0
 25 26  1  0
 26 27  2  0
 27 22  1  0
 10 22  1  0
 24 28  1  0
M  END
>  <Curated_InChIs>  (116) 
InChI=1S/C24H19ClN2O/c25-18-10-6-9-17(15-18)23-22-20(19-11-4-5-12-21(19)26-22)13-14-27(23)24(28)16-7-2-1-3-8-16/h1-12,15,23,26H,13-14H2

>  <threshold>  (116) 
5

>  <pchembl>  (116) 
6.06, 6.09

>  <Classification>  (116) 
1

>  <source>  (116) 
chembl_28

>  <SMILES>  (116) 
O=C(c1ccccc1)N1CCc2c([nH]c3ccccc23)C1c1cccc(Cl)c1

>  <InChIKey>  (116) 
NVUJCJKAAMFJDS-UHFFFAOYSA-N

$$$$

     RDKit          2D

 26 29  0  0  0  0  0  0  0  0999 V2000
   26.1446  -12.1794    0.0000 C   0  0  0  0  0  0  0  0  0  0  0  0
   26.1434  -12.9990    0.0000 C   0  0  0  0  0  0  0  0  0  0  0  0
   26.8515  -13.4079    0.0000 C   0  0  0  0  0  0  0  0  0  0  0  0
   26.8497  -11.7706    0.0000 C   0  0  0  0  0  0  0  0  0  0  0  0
   27.5583  -12.1758    0.0000 C   0  0  0  0  0  0  0  0  0  0  0  0
   27.5591  -12.9948    0.0000 C   0  0  0  0  0  0  0  0  0  0  0  0
   28.2676  -13.4019    0.0000 N   0  0  0  0  0  0  0  0  0  0  0  0
   28.9759  -12.9911    0.0000 C   0  0  0  0  0  0  0  0  0  0  0  0
   28.9711  -12.1689    0.0000 N   0  0  0  0  0  0  0  0  0  0  0  0
   28.2620  -11.7656    0.0000 C   0  0  0  0  0  0  0  0  0  0  0  0
   29.6893  -13.3941    0.0000 C   0  0  0  0  0  0  0  0  0  0  0  0
   29.7779  -14.2064    0.0000 C   0  0  0  0  0  0  0  0  0  0  0  0
   30.5779  -14.3732    0.0000 C   0  0  0  0  0  0  0  0  0  0  0  0
   30.9838  -13.6639    0.0000 C   0  0  0  0  0  0  0  0  0  0  0  0
   30.4345  -13.0588    0.0000 N   0  0  0  0  0  0  0  0  0  0  0  0
   28.2577  -10.9484    0.0000 N   0  0  0  0  0  0  0  0  0  0  0  0
   28.9632  -10.5361    0.0000 C   0  0  0  0  0  0  0  0  0  0  0  0
   29.6685  -10.9443    0.0000 C   0  0  0  0  0  0  0  0  0  0  0  0
   30.3736  -10.5326    0.0000 C   0  0  0  0  0  0  0  0  0  0  0  0
   30.3697   -9.7146    0.0000 C   0  0  0  0  0  0  0  0  0  0  0  0
   29.6548   -9.3099    0.0000 C   0  0  0  0  0  0  0  0  0  0  0  0
   28.9527   -9.7239    0.0000 C   0  0  0  0  0  0  0  0  0  0  0  0
   31.0832  -10.9378    0.0000 O   0  0  0  0  0  0  0  0  0  0  0  0
   31.0746   -9.3013    0.0000 O   0  0  0  0  0  0  0  0  0  0  0  0
   31.7850   -9.7052    0.0000 C   0  0  0  0  0  0  0  0  0  0  0  0
   31.0872  -11.7550    0.0000 C   0  0  0  0  0  0  0  0  0  0  0  0
  1  2  2  0
  2  3  1  0
  3  6  2  0
  5  4  2  0
  4  1  1  0
  5  6  1  0
  6  7  1  0
  7  8  2  0
  8  9  1  0
  9 10  2  0
 10  5  1  0
 11 12  2  0
 12 13  1  0
 13 14  2  0
 14 15  1  0
 15 11  1  0
  8 11  1  0
 10 16  1  0
 16 17  1  0
 17 18  2  0
 18 19  1  0
 19 20  2  0
 20 21  1  0
 21 22  2  0
 22 17  1  0
 19 23  1  0
 20 24  1  0
 24 25  1  0
 23 26  1  0
M  END
>  <Curated_InChIs>  (117) 
InChI=1S/C20H18N4O2/c1-25-17-10-9-13(12-18(17)26-2)22-19-14-6-3-4-7-15(14)23-20(24-19)16-8-5-11-21-16/h3-12,21H,1-2H3,(H,22,23,24)

>  <threshold>  (117) 
5

>  <pchembl>  (117) 
6.19

>  <Classification>  (117) 
1

>  <source>  (117) 
chembl_28

>  <SMILES>  (117) 
COc1ccc(Nc2nc(-c3ccc[nH]3)nc3ccccc23)cc1OC

>  <InChIKey>  (117) 
NYRQNTJRMWEOOQ-UHFFFAOYSA-N

$$$$

     RDKit          2D

 31 35  0  0  0  0  0  0  0  0999 V2000
   21.8646  -10.9000    0.0000 C   0  0  0  0  0  0  0  0  0  0  0  0
   21.8635  -11.7195    0.0000 C   0  0  0  0  0  0  0  0  0  0  0  0
   22.5715  -12.1285    0.0000 C   0  0  0  0  0  0  0  0  0  0  0  0
   22.5698  -10.4911    0.0000 C   0  0  0  0  0  0  0  0  0  0  0  0
   23.2784  -10.8964    0.0000 C   0  0  0  0  0  0  0  0  0  0  0  0
   23.2786  -11.7195    0.0000 C   0  0  0  0  0  0  0  0  0  0  0  0
   24.0616  -11.9737    0.0000 N   0  0  0  0  0  0  0  0  0  0  0  0
   24.0612  -10.6418    0.0000 C   0  0  0  0  0  0  0  0  0  0  0  0
   24.5454  -11.3089    0.0000 C   0  0  0  0  0  0  0  0  0  0  0  0
   25.3607  -11.2237    0.0000 C   0  0  0  0  0  0  0  0  0  0  0  0
   25.6981  -10.4723    0.0000 N   0  0  0  0  0  0  0  0  0  0  0  0
   25.2140   -9.8052    0.0000 C   0  0  0  0  0  0  0  0  0  0  0  0
   24.3923   -9.8894    0.0000 C   0  0  0  0  0  0  0  0  0  0  0  0
   26.5110  -10.3884    0.0000 C   0  0  0  0  0  0  0  0  0  0  0  0
   26.9901  -11.0504    0.0000 O   0  0  0  0  0  0  0  0  0  0  0  0
   26.8448   -9.6424    0.0000 C   0  0  0  0  0  0  0  0  0  0  0  0
   27.6579   -9.5626    0.0000 C   0  0  0  0  0  0  0  0  0  0  0  0
   27.9917   -8.8175    0.0000 C   0  0  0  0  0  0  0  0  0  0  0  0
   27.5124   -8.1545    0.0000 C   0  0  0  0  0  0  0  0  0  0  0  0
   26.6956   -8.2415    0.0000 C   0  0  0  0  0  0  0  0  0  0  0  0
   26.3656   -8.9868    0.0000 C   0  0  0  0  0  0  0  0  0  0  0  0
   25.8406  -11.8823    0.0000 C   0  0  0  0  0  0  0  0  0  0  0  0
   25.5052  -12.6287    0.0000 C   0  0  0  0  0  0  0  0  0  0  0  0
   25.9835  -13.2903    0.0000 C   0  0  0  0  0  0  0  0  0  0  0  0
   26.7973  -13.2068    0.0000 C   0  0  0  0  0  0  0  0  0  0  0  0
   27.1304  -12.4559    0.0000 C   0  0  0  0  0  0  0  0  0  0  0  0
   26.6500  -11.7974    0.0000 C   0  0  0  0  0  0  0  0  0  0  0  0
   27.2773  -13.8681    0.0000 N   0  0  0  0  0  0  0  0  0  0  0  0
   26.9445  -14.6145    0.0000 C   0  0  0  0  0  0  0  0  0  0  0  0
   27.4245  -15.2759    0.0000 O   0  0  0  0  0  0  0  0  0  0  0  0
   26.1317  -14.6995    0.0000 C   0  0  0  0  0  0  0  0  0  0  0  0
  1  2  2  0
  2  3  1  0
  3  6  2  0
  5  4  2  0
  4  1  1  0
  5  6  1  0
  6  7  1  0
  7  9  1  0
  8  5  1  0
  8  9  2  0
  8 13  1  0
  9 10  1  0
 10 11  1  0
 11 12  1  0
 12 13  1  0
 11 14  1  0
 14 15  2  0
 14 16  1  0
 16 17  2  0
 17 18  1  0
 18 19  2  0
 19 20  1  0
 20 21  2  0
 21 16  1  0
 22 23  2  0
 23 24  1  0
 24 25  2  0
 25 26  1  0
 26 27  2  0
 27 22  1  0
 10 22  1  0
 25 28  1  0
 28 29  1  0
 29 30  2  0
 29 31  1  0
M  END
>  <Curated_InChIs>  (118) 
InChI=1S/C26H23N3O2/c1-17(30)27-20-13-11-18(12-14-20)25-24-22(21-9-5-6-10-23(21)28-24)15-16-29(25)26(31)19-7-3-2-4-8-19/h2-14,25,28H,15-16H2,1H3,(H,27,30)

>  <threshold>  (118) 
5

>  <pchembl>  (118) 
5.11

>  <Classification>  (118) 
1

>  <source>  (118) 
chembl_28

>  <SMILES>  (118) 
CC(=O)Nc1ccc(C2c3[nH]c4ccccc4c3CCN2C(=O)c2ccccc2)cc1

>  <InChIKey>  (118) 
OGLVKNFLOWCEEQ-UHFFFAOYSA-N

$$$$

     RDKit          2D

 28 32  0  0  0  0  0  0  0  0999 V2000
   29.8096   -2.3979    0.0000 C   0  0  0  0  0  0  0  0  0  0  0  0
   29.8084   -3.2174    0.0000 C   0  0  0  0  0  0  0  0  0  0  0  0
   30.5165   -3.6264    0.0000 C   0  0  0  0  0  0  0  0  0  0  0  0
   30.5147   -1.9890    0.0000 C   0  0  0  0  0  0  0  0  0  0  0  0
   31.2233   -2.3943    0.0000 C   0  0  0  0  0  0  0  0  0  0  0  0
   31.2235   -3.2175    0.0000 C   0  0  0  0  0  0  0  0  0  0  0  0
   32.0065   -3.4716    0.0000 N   0  0  0  0  0  0  0  0  0  0  0  0
   32.0061   -2.1397    0.0000 C   0  0  0  0  0  0  0  0  0  0  0  0
   32.4903   -2.8068    0.0000 C   0  0  0  0  0  0  0  0  0  0  0  0
   33.3056   -2.7216    0.0000 C   0  0  0  0  0  0  0  0  0  0  0  0
   33.6431   -1.9702    0.0000 N   0  0  0  0  0  0  0  0  0  0  0  0
   33.1589   -1.3031    0.0000 C   0  0  0  0  0  0  0  0  0  0  0  0
   32.3372   -1.3873    0.0000 C   0  0  0  0  0  0  0  0  0  0  0  0
   34.4559   -1.8863    0.0000 C   0  0  0  0  0  0  0  0  0  0  0  0
   34.9350   -2.5483    0.0000 O   0  0  0  0  0  0  0  0  0  0  0  0
   34.7897   -1.1404    0.0000 C   0  0  0  0  0  0  0  0  0  0  0  0
   35.6028   -1.0605    0.0000 C   0  0  0  0  0  0  0  0  0  0  0  0
   35.9366   -0.3154    0.0000 C   0  0  0  0  0  0  0  0  0  0  0  0
   35.4574    0.3541    0.0000 C   0  0  0  0  0  0  0  0  0  0  0  0
   34.6406    0.2677    0.0000 C   0  0  0  0  0  0  0  0  0  0  0  0
   34.3105   -0.4847    0.0000 C   0  0  0  0  0  0  0  0  0  0  0  0
   33.7855   -3.3802    0.0000 C   0  0  0  0  0  0  0  0  0  0  0  0
   33.4501   -4.1266    0.0000 C   0  0  0  0  0  0  0  0  0  0  0  0
   33.9284   -4.7882    0.0000 C   0  0  0  0  0  0  0  0  0  0  0  0
   34.7422   -4.7047    0.0000 C   0  0  0  0  0  0  0  0  0  0  0  0
   35.0753   -3.9538    0.0000 C   0  0  0  0  0  0  0  0  0  0  0  0
   34.5949   -3.2953    0.0000 C   0  0  0  0  0  0  0  0  0  0  0  0
   32.6371   -4.2097    0.0000 F   0  0  0  0  0  0  0  0  0  0  0  0
  1  2  2  0
  2  3  1  0
  3  6  2  0
  5  4  2  0
  4  1  1  0
  5  6  1  0
  6  7  1  0
  7  9  1  0
  8  5  1  0
  8  9  2  0
  8 13  1  0
  9 10  1  0
 10 11  1  0
 11 12  1  0
 12 13  1  0
 11 14  1  0
 14 15  2  0
 14 16  1  0
 16 17  2  0
 17 18  1  0
 18 19  2  0
 19 20  1  0
 20 21  2  0
 21 16  1  0
 22 23  2  0
 23 24  1  0
 24 25  2  0
 25 26  1  0
 26 27  2  0
 27 22  1  0
 10 22  1  0
 23 28  1  0
M  END
>  <Curated_InChIs>  (119) 
InChI=1S/C24H19FN2O/c25-20-12-6-4-11-19(20)23-22-18(17-10-5-7-13-21(17)26-22)14-15-27(23)24(28)16-8-2-1-3-9-16/h1-13,23,26H,14-15H2

>  <threshold>  (119) 
5

>  <pchembl>  (119) 
5.35

>  <Classification>  (119) 
1

>  <source>  (119) 
chembl_28

>  <SMILES>  (119) 
O=C(c1ccccc1)N1CCc2c([nH]c3ccccc23)C1c1ccccc1F

>  <InChIKey>  (119) 
OQNGHEVWUBCJMX-UHFFFAOYSA-N

$$$$

     RDKit          2D

 25 28  0  0  0  0  0  0  0  0999 V2000
    4.7792   -2.6292    0.0000 C   0  0  0  0  0  0  0  0  0  0  0  0
    5.4917   -2.2167    0.0000 N   0  0  0  0  0  0  0  0  0  0  0  0
    5.4917   -1.3875    0.0000 C   0  0  0  0  0  0  0  0  0  0  0  0
    4.7792   -3.4542    0.0000 N   0  0  0  0  0  0  0  0  0  0  0  0
    4.7792   -0.9792    0.0000 N   0  0  0  0  0  0  0  0  0  0  0  0
    4.0667   -2.2167    0.0000 C   0  0  0  0  0  0  0  0  0  0  0  0
    5.5792   -3.6667    0.0000 C   0  0  0  0  0  0  0  0  0  0  0  0
    4.0667   -1.3917    0.0000 C   0  0  0  0  0  0  0  0  0  0  0  0
    6.2042   -0.9667    0.0000 C   0  0  0  0  0  0  0  0  0  0  0  0
    6.2292   -3.1667    0.0000 O   0  0  0  0  0  0  0  0  0  0  0  0
    5.5667   -4.4917    0.0000 C   0  0  0  0  0  0  0  0  0  0  0  0
    3.3542   -2.6375    0.0000 C   0  0  0  0  0  0  0  0  0  0  0  0
    3.3542   -0.9792    0.0000 C   0  0  0  0  0  0  0  0  0  0  0  0
    6.1917   -0.1500    0.0000 C   0  0  0  0  0  0  0  0  0  0  0  0
    6.9167   -1.3792    0.0000 C   0  0  0  0  0  0  0  0  0  0  0  0
    6.2792   -4.9042    0.0000 C   0  0  0  0  0  0  0  0  0  0  0  0
    4.8542   -4.9000    0.0000 C   0  0  0  0  0  0  0  0  0  0  0  0
    2.6417   -2.2250    0.0000 C   0  0  0  0  0  0  0  0  0  0  0  0
    2.6417   -1.4000    0.0000 C   0  0  0  0  0  0  0  0  0  0  0  0
    4.8417   -5.7250    0.0000 C   0  0  0  0  0  0  0  0  0  0  0  0
    6.2792   -5.7292    0.0000 C   0  0  0  0  0  0  0  0  0  0  0  0
    7.6292   -0.9542    0.0000 C   0  0  0  0  0  0  0  0  0  0  0  0
    6.9042    0.2708    0.0000 C   0  0  0  0  0  0  0  0  0  0  0  0
    5.5542   -6.1417    0.0000 C   0  0  0  0  0  0  0  0  0  0  0  0
    7.6167   -0.1292    0.0000 C   0  0  0  0  0  0  0  0  0  0  0  0
  2  1  2  0
  3  2  1  0
  4  1  1  0
  5  8  1  0
  6  1  1  0
  7  4  1  0
  8  6  2  0
  9  3  1  0
 10  7  2  0
 11  7  1  0
 12  6  1  0
 13  8  1  0
 14  9  2  0
 15  9  1  0
 16 11  2  0
 17 11  1  0
 18 12  2  0
 19 18  1  0
 20 17  2  0
 21 16  1  0
 22 15  2  0
 23 14  1  0
 24 20  1  0
 25 22  1  0
  5  3  2  0
 19 13  2  0
 24 21  2  0
 25 23  2  0
M  END
>  <Curated_InChIs>  (120) 
InChI=1S/C21H15N3O/c25-21(16-11-5-2-6-12-16)24-20-17-13-7-8-14-18(17)22-19(23-20)15-9-3-1-4-10-15/h1-14H,(H,22,23,24,25)

>  <threshold>  (120) 
5

>  <pchembl>  (120) 
6.37

>  <Classification>  (120) 
1

>  <source>  (120) 
chembl_28

>  <SMILES>  (120) 
O=C(Nc1nc(-c2ccccc2)nc2ccccc12)c1ccccc1

>  <InChIKey>  (120) 
OTUOIHJJRAPDOB-UHFFFAOYSA-N

$$$$

     RDKit          2D

 27 30  0  0  0  0  0  0  0  0999 V2000
   -3.7800    1.8600    0.0000 C   0  0  0  0  0  0  0  0  0  0  0  0
   -3.7800    0.4000    0.0000 C   0  0  0  0  0  0  0  0  0  0  0  0
   -2.5200   -0.3300    0.0000 C   0  0  0  0  0  0  0  0  0  0  0  0
   -2.5200    2.6000    0.0000 C   0  0  0  0  0  0  0  0  0  0  0  0
   -1.2800    1.8600    0.0000 C   0  0  0  0  0  0  0  0  0  0  0  0
   -1.2800    0.4000    0.0000 C   0  0  0  0  0  0  0  0  0  0  0  0
    0.0000   -0.3300    0.0000 N   0  0  0  0  0  0  0  0  0  0  0  0
    1.2600    1.8600    0.0000 C   0  0  0  0  0  0  0  0  0  0  0  0
    1.2600    0.4000    0.0000 C   0  0  0  0  0  0  0  0  0  0  0  0
    2.5200   -0.3300    0.0000 C   0  0  0  0  0  0  0  0  0  0  0  0
    2.5200    2.6000    0.0000 C   0  0  0  0  0  0  0  0  0  0  0  0
    3.8000    1.8600    0.0000 C   0  0  0  0  0  0  0  0  0  0  0  0
    3.8000    0.4000    0.0000 N   0  0  0  0  0  0  0  0  0  0  0  0
    5.0500   -0.3600    0.0000 C   0  0  0  0  0  0  0  0  0  0  0  0
    6.3600    0.4000    0.0000 C   0  0  0  0  0  0  0  0  0  0  0  0
    6.3600    1.8600    0.0000 N   0  0  0  0  0  0  0  0  0  0  0  0
    5.0500    2.5700    0.0000 C   0  0  0  0  0  0  0  0  0  0  0  0
   -5.0786   -0.3532    0.0000 O   0  0  0  0  0  0  0  0  0  0  0  0
   -5.0770   -1.5532    0.0000 C   0  0  0  0  0  0  0  0  0  0  0  0
    5.0381    3.7699    0.0000 O   0  0  0  0  0  0  0  0  0  0  0  0
    5.0377   -1.5599    0.0000 O   0  0  0  0  0  0  0  0  0  0  0  0
    7.3999   -0.1989    0.0000 C   0  0  0  0  0  0  0  0  0  0  0  0
    2.5070   -1.8312    0.0000 C   0  0  0  0  0  0  0  0  0  0  0  0
    1.2012   -2.5710    0.0000 C   0  0  0  0  0  0  0  0  0  0  0  0
    1.1907   -3.7710    0.0000 C   0  0  0  0  0  0  0  0  0  0  0  0
    0.1670   -1.9623    0.0000 C   0  0  0  0  0  0  0  0  0  0  0  0
   -4.8215    2.4561    0.0000 C   0  0  0  0  0  0  0  0  0  0  0  0
  1  2  2  0
  2  3  1  0
  3  6  2  0
  5  4  2  0
  4  1  1  0
  5  6  1  0
  6  7  1  0
  7  9  1  0
  8  5  1  0
  8  9  2  0
  8 11  1  0
  9 10  1  0
 10 13  1  0
 12 11  1  6
 12 13  1  0
 12 17  1  0
 13 14  1  0
 14 15  1  0
 15 16  1  0
 16 17  1  0
  2 18  1  0
 18 19  1  0
 17 20  2  0
 14 21  2  0
 15 22  1  1
 10 23  1  1
 23 24  1  0
 24 25  1  0
 24 26  1  0
  1 27  1  0
M  END
>  <Curated_InChIs>  (121) 
InChI=1S/C21H27N3O3/c1-10(2)6-16-19-14(8-17-20(25)22-12(4)21(26)24(16)17)13-7-11(3)18(27-5)9-15(13)23-19/h7,9-10,12,16-17,23H,6,8H2,1-5H3,(H,22,25)

>  <threshold>  (121) 
5

>  <pchembl>  (121) 
5.74

>  <Classification>  (121) 
1

>  <source>  (121) 
chembl_28

>  <SMILES>  (121) 
COc1cc2[nH]c3c(c2cc1C)C[C@@H]1C(=O)N[C@@H](C)C(=O)N1[C@H]3CC(C)C

>  <InChIKey>  (121) 
OYPMFJQCOUWFGF-AFAVFJNCSA-N

$$$$

     RDKit          2D

 27 30  0  0  0  0  0  0  0  0999 V2000
    3.2343  -12.6623    0.0000 C   0  0  0  0  0  0  0  0  0  0  0  0
    3.2332  -13.4818    0.0000 C   0  0  0  0  0  0  0  0  0  0  0  0
    3.9412  -13.8908    0.0000 C   0  0  0  0  0  0  0  0  0  0  0  0
    3.9394  -12.2534    0.0000 C   0  0  0  0  0  0  0  0  0  0  0  0
    4.6481  -12.6587    0.0000 C   0  0  0  0  0  0  0  0  0  0  0  0
    4.6488  -13.4777    0.0000 C   0  0  0  0  0  0  0  0  0  0  0  0
    5.3574  -13.8848    0.0000 N   0  0  0  0  0  0  0  0  0  0  0  0
    6.0656  -13.4740    0.0000 C   0  0  0  0  0  0  0  0  0  0  0  0
    6.0609  -12.6518    0.0000 N   0  0  0  0  0  0  0  0  0  0  0  0
    5.3518  -12.2485    0.0000 C   0  0  0  0  0  0  0  0  0  0  0  0
    5.3474  -11.4313    0.0000 N   0  0  0  0  0  0  0  0  0  0  0  0
    6.0530  -11.0189    0.0000 C   0  0  0  0  0  0  0  0  0  0  0  0
    6.7583  -11.4272    0.0000 C   0  0  0  0  0  0  0  0  0  0  0  0
    7.4633  -11.0155    0.0000 C   0  0  0  0  0  0  0  0  0  0  0  0
    7.4594  -10.1974    0.0000 C   0  0  0  0  0  0  0  0  0  0  0  0
    6.7446   -9.7928    0.0000 C   0  0  0  0  0  0  0  0  0  0  0  0
    6.0425  -10.2068    0.0000 C   0  0  0  0  0  0  0  0  0  0  0  0
    6.7714  -13.8757    0.0000 C   0  0  0  0  0  0  0  0  0  0  0  0
    6.7732  -14.6940    0.0000 C   0  0  0  0  0  0  0  0  0  0  0  0
    7.4817  -15.0998    0.0000 N   0  0  0  0  0  0  0  0  0  0  0  0
    8.1887  -14.6884    0.0000 C   0  0  0  0  0  0  0  0  0  0  0  0
    8.1829  -13.8670    0.0000 C   0  0  0  0  0  0  0  0  0  0  0  0
    7.4739  -13.4649    0.0000 C   0  0  0  0  0  0  0  0  0  0  0  0
    8.1644   -9.7842    0.0000 O   0  0  0  0  0  0  0  0  0  0  0  0
    6.7373   -8.9718    0.0000 N   0  0  0  0  0  0  0  0  0  0  0  0
    6.0260   -8.5695    0.0000 O   0  0  0  0  0  0  0  0  0  0  0  0
    7.4414   -8.5570    0.0000 O   0  0  0  0  0  0  0  0  0  0  0  0
  1  2  2  0
  2  3  1  0
  3  6  2  0
  5  4  2  0
  4  1  1  0
  5  6  1  0
  6  7  1  0
  7  8  2  0
  8  9  1  0
  9 10  2  0
 10  5  1  0
 10 11  1  0
 11 12  1  0
 12 13  2  0
 13 14  1  0
 14 15  2  0
 15 16  1  0
 16 17  2  0
 17 12  1  0
 18 19  2  0
 19 20  1  0
 20 21  2  0
 21 22  1  0
 22 23  2  0
 23 18  1  0
  8 18  1  0
 15 24  1  0
 25 26  2  0
 25 27  1  0
 16 25  1  0
M  CHG  2  25   1  27  -1
M  END
>  <Curated_InChIs>  (122) 
InChI=1S/C19H13N5O3/c25-17-8-7-13(10-16(17)24(26)27)21-19-14-5-1-2-6-15(14)22-18(23-19)12-4-3-9-20-11-12/h1-11,25H,(H,21,22,23)

>  <threshold>  (122) 
5

>  <pchembl>  (122) 
6.61

>  <Classification>  (122) 
1

>  <source>  (122) 
chembl_28

>  <SMILES>  (122) 
O=[N+]([O-])c1cc(Nc2nc(-c3cccnc3)nc3ccccc23)ccc1O

>  <InChIKey>  (122) 
PCHNKYFIDKTLKO-UHFFFAOYSA-N

$$$$

     RDKit          2D

 30 32  0  0  0  0  0  0  0  0999 V2000
   10.3041  -12.9076    0.0000 C   0  0  0  0  0  0  0  0  0  0  0  0
   10.3041  -13.7247    0.0000 C   0  0  0  0  0  0  0  0  0  0  0  0
   11.0090  -14.1333    0.0000 C   0  0  0  0  0  0  0  0  0  0  0  0
   11.0090  -14.9505    0.0000 C   0  0  0  0  0  0  0  0  0  0  0  0
   10.3041  -15.3591    0.0000 C   0  0  0  0  0  0  0  0  0  0  0  0
    9.5950  -14.9505    0.0000 C   0  0  0  0  0  0  0  0  0  0  0  0
    9.5950  -14.1333    0.0000 C   0  0  0  0  0  0  0  0  0  0  0  0
   11.0090  -12.4990    0.0000 O   0  0  0  0  0  0  0  0  0  0  0  0
    9.5950  -12.4990    0.0000 N   0  0  0  0  0  0  0  0  0  0  0  0
    9.5950  -11.6818    0.0000 C   0  0  0  0  0  0  0  0  0  0  0  0
   10.3041  -11.2732    0.0000 C   0  0  0  0  0  0  0  0  0  0  0  0
   10.3041  -10.4560    0.0000 C   0  0  0  0  0  0  0  0  0  0  0  0
    9.5950  -10.0474    0.0000 C   0  0  0  0  0  0  0  0  0  0  0  0
    8.8859  -10.4560    0.0000 C   0  0  0  0  0  0  0  0  0  0  0  0
    8.8859  -11.2732    0.0000 C   0  0  0  0  0  0  0  0  0  0  0  0
   11.0090  -10.0474    0.0000 C   0  0  0  0  0  0  0  0  0  0  0  0
   11.0090   -9.2302    0.0000 C   0  0  0  0  0  0  0  0  0  0  0  0
   10.3041   -8.8216    0.0000 C   0  0  0  0  0  0  0  0  0  0  0  0
   12.4231  -14.1333    0.0000 C   0  0  0  0  0  0  0  0  0  0  0  0
   13.1322  -13.7247    0.0000 C   0  0  0  0  0  0  0  0  0  0  0  0
   13.8412  -14.1333    0.0000 C   0  0  0  0  0  0  0  0  0  0  0  0
   14.5503  -13.7247    0.0000 C   0  0  0  0  0  0  0  0  0  0  0  0
   14.5503  -12.9076    0.0000 C   0  0  0  0  0  0  0  0  0  0  0  0
   13.8412  -12.4990    0.0000 C   0  0  0  0  0  0  0  0  0  0  0  0
   13.1322  -12.9076    0.0000 C   0  0  0  0  0  0  0  0  0  0  0  0
   12.4231  -14.9505    0.0000 O   0  0  0  0  0  0  0  0  0  0  0  0
   11.7181  -13.7247    0.0000 N   0  0  0  0  0  0  0  0  0  0  0  0
   13.8412  -14.9505    0.0000 N   0  0  0  0  0  0  0  0  0  0  0  0
   13.1322  -15.3591    0.0000 O   0  0  0  0  0  0  0  0  0  0  0  0
   14.5503  -15.3591    0.0000 O   0  0  0  0  0  0  0  0  0  0  0  0
  1  2  1  0
  2  3  1  0
  3  4  2  0
  4  5  1  0
  5  6  2  0
  6  7  1  0
  2  7  2  0
  1  8  2  0
  1  9  1  0
 10 11  2  0
 11 12  1  0
 12 13  2  0
 13 14  1  0
 14 15  2  0
 10 15  1  0
 16 17  1  0
 17 18  1  0
 12 16  1  0
  9 10  1  0
 19 20  1  0
 20 21  2  0
 21 22  1  0
 22 23  2  0
 23 24  1  0
 24 25  2  0
 20 25  1  0
 19 26  2  0
 19 27  1  0
 28 29  2  0
 28 30  1  0
 21 28  1  0
  3 27  1  0
M  CHG  2  28   1  30  -1
M  END
>  <Curated_InChIs>  (123) 
InChI=1S/C23H21N3O4/c1-2-8-16-9-7-10-17(15-16)24-22(27)18-11-3-5-13-20(18)25-23(28)19-12-4-6-14-21(19)26(29)30/h3-7,9-15H,2,8H2,1H3,(H,24,27)(H,25,28)

>  <threshold>  (123) 
5

>  <pchembl>  (123) 
5.67, 5.55, 5.77

>  <Classification>  (123) 
1

>  <source>  (123) 
chembl_28

>  <SMILES>  (123) 
CCCc1cccc(NC(=O)c2ccccc2NC(=O)c2ccccc2[N+](=O)[O-])c1

>  <InChIKey>  (123) 
PGUNDTXQCOOBCT-UHFFFAOYSA-N

$$$$

     RDKit          2D

 24 27  0  0  0  0  0  0  0  0999 V2000
   22.7396  -19.3979    0.0000 C   0  0  0  0  0  0  0  0  0  0  0  0
   22.7385  -20.2175    0.0000 C   0  0  0  0  0  0  0  0  0  0  0  0
   23.4465  -20.6264    0.0000 C   0  0  0  0  0  0  0  0  0  0  0  0
   23.4447  -18.9891    0.0000 C   0  0  0  0  0  0  0  0  0  0  0  0
   24.1533  -19.3943    0.0000 C   0  0  0  0  0  0  0  0  0  0  0  0
   24.1541  -20.2134    0.0000 C   0  0  0  0  0  0  0  0  0  0  0  0
   24.8626  -20.6204    0.0000 N   0  0  0  0  0  0  0  0  0  0  0  0
   25.5709  -20.2096    0.0000 C   0  0  0  0  0  0  0  0  0  0  0  0
   25.5662  -19.3875    0.0000 N   0  0  0  0  0  0  0  0  0  0  0  0
   24.8571  -18.9841    0.0000 C   0  0  0  0  0  0  0  0  0  0  0  0
   26.2843  -20.6126    0.0000 C   0  0  0  0  0  0  0  0  0  0  0  0
   24.8527  -18.1669    0.0000 O   0  0  0  0  0  0  0  0  0  0  0  0
   25.5583  -17.7546    0.0000 C   0  0  0  0  0  0  0  0  0  0  0  0
   26.2635  -18.1628    0.0000 C   0  0  0  0  0  0  0  0  0  0  0  0
   26.9686  -17.7511    0.0000 C   0  0  0  0  0  0  0  0  0  0  0  0
   26.9647  -16.9331    0.0000 C   0  0  0  0  0  0  0  0  0  0  0  0
   26.2499  -16.5284    0.0000 C   0  0  0  0  0  0  0  0  0  0  0  0
   25.5477  -16.9424    0.0000 C   0  0  0  0  0  0  0  0  0  0  0  0
   26.2871  -21.4318    0.0000 C   0  0  0  0  0  0  0  0  0  0  0  0
   26.9997  -21.8348    0.0000 C   0  0  0  0  0  0  0  0  0  0  0  0
   27.7064  -21.4184    0.0000 C   0  0  0  0  0  0  0  0  0  0  0  0
   27.6961  -20.5948    0.0000 C   0  0  0  0  0  0  0  0  0  0  0  0
   26.9829  -20.1956    0.0000 C   0  0  0  0  0  0  0  0  0  0  0  0
   27.6783  -18.1563    0.0000 Br  0  0  0  0  0  0  0  0  0  0  0  0
  1  2  2  0
  2  3  1  0
  3  6  2  0
  5  4  2  0
  4  1  1  0
  5  6  1  0
  6  7  1  0
  7  8  2  0
  8  9  1  0
  9 10  2  0
 10  5  1  0
  8 11  1  0
 10 12  1  0
 12 13  1  0
 13 14  2  0
 14 15  1  0
 15 16  2  0
 16 17  1  0
 17 18  2  0
 18 13  1  0
 11 19  2  0
 19 20  1  0
 20 21  2  0
 21 22  1  0
 22 23  2  0
 23 11  1  0
 15 24  1  0
M  END
>  <Curated_InChIs>  (124) 
InChI=1S/C20H13BrN2O/c21-15-9-6-10-16(13-15)24-20-17-11-4-5-12-18(17)22-19(23-20)14-7-2-1-3-8-14/h1-13H

>  <threshold>  (124) 
5

>  <pchembl>  (124) 
5.41

>  <Classification>  (124) 
1

>  <source>  (124) 
chembl_28

>  <SMILES>  (124) 
Brc1cccc(Oc2nc(-c3ccccc3)nc3ccccc23)c1

>  <InChIKey>  (124) 
PMZPNOLWZKACSL-UHFFFAOYSA-N

$$$$

     RDKit          2D

 21 22  0  0  0  0  0  0  0  0999 V2000
    1.2990   -0.7500    0.0000 C   0  0  0  0  0  0  0  0  0  0  0  0
    1.2990    0.7500    0.0000 C   0  0  0  0  0  0  0  0  0  0  0  0
    0.0000    1.5000    0.0000 C   0  0  0  0  0  0  0  0  0  0  0  0
   -1.2990    0.7500    0.0000 C   0  0  0  0  0  0  0  0  0  0  0  0
   -1.2990   -0.7500    0.0000 C   0  0  0  0  0  0  0  0  0  0  0  0
    0.0000   -1.5000    0.0000 C   0  0  0  0  0  0  0  0  0  0  0  0
    2.6003   -1.4977    0.0000 C   0  0  0  0  0  0  0  0  0  0  0  0
    3.8990   -0.7455    0.0000 C   0  0  0  0  0  0  0  0  0  0  0  0
    5.2003   -1.4932    0.0000 C   0  0  0  0  0  0  0  0  0  0  0  0
    6.4990   -0.7409    0.0000 C   0  0  0  0  0  0  0  0  0  0  0  0
    5.2024   -2.6932    0.0000 O   0  0  0  0  0  0  0  0  0  0  0  0
    7.8007   -1.4864    0.0000 C   0  0  0  0  0  0  0  0  0  0  0  0
    9.0971   -0.7319    0.0000 C   0  0  0  0  0  0  0  0  0  0  0  0
    9.0919    0.7681    0.0000 C   0  0  0  0  0  0  0  0  0  0  0  0
    7.7903    1.5136    0.0000 C   0  0  0  0  0  0  0  0  0  0  0  0
    6.4939    0.7591    0.0000 C   0  0  0  0  0  0  0  0  0  0  0  0
   10.1291    1.3717    0.0000 O   0  0  0  0  0  0  0  0  0  0  0  0
    0.0000   -3.0008    0.0000 C   0  0  0  0  0  0  0  0  0  0  0  0
   -1.0388   -3.6015    0.0000 F   0  0  0  0  0  0  0  0  0  0  0  0
    1.0394   -3.6005    0.0000 F   0  0  0  0  0  0  0  0  0  0  0  0
    0.0006   -4.2008    0.0000 F   0  0  0  0  0  0  0  0  0  0  0  0
  1  2  2  0
  2  3  1  0
  3  4  2  0
  4  5  1  0
  5  6  2  0
  6  1  1  0
  1  7  1  0
  7  8  2  0
  8  9  1  0
  9 10  1  0
  9 11  2  0
 10 12  2  0
 12 13  1  0
 13 14  2  0
 14 15  1  0
 15 16  2  0
 16 10  1  0
 14 17  1  0
 18 19  1  0
 18 20  1  0
 18 21  1  0
  6 18  1  0
M  END
>  <Curated_InChIs>  (125) 
InChI=1S/C16H11F3O2/c17-16(18,19)14-4-2-1-3-11(14)7-10-15(21)12-5-8-13(20)9-6-12/h1-10,20H

>  <threshold>  (125) 
5

>  <pchembl>  (125) 
5.31

>  <Classification>  (125) 
1

>  <source>  (125) 
chembl_28

>  <SMILES>  (125) 
O=C(/C=C/c1ccccc1C(F)(F)F)c1ccc(O)cc1

>  <InChIKey>  (125) 
PWZXRLJPNZIKGI-JXMROGBWSA-N

$$$$

     RDKit          2D

 27 31  0  0  0  0  0  0  0  0999 V2000
    2.4171   -8.7332    0.0000 C   0  0  0  0  0  0  0  0  0  0  0  0
    2.4160   -9.5527    0.0000 C   0  0  0  0  0  0  0  0  0  0  0  0
    3.1240   -9.9617    0.0000 C   0  0  0  0  0  0  0  0  0  0  0  0
    3.1222   -8.3243    0.0000 C   0  0  0  0  0  0  0  0  0  0  0  0
    3.8309   -8.7296    0.0000 C   0  0  0  0  0  0  0  0  0  0  0  0
    3.8311   -9.5528    0.0000 C   0  0  0  0  0  0  0  0  0  0  0  0
    4.6141   -9.8069    0.0000 N   0  0  0  0  0  0  0  0  0  0  0  0
    4.6137   -8.4750    0.0000 C   0  0  0  0  0  0  0  0  0  0  0  0
    5.0979   -9.1421    0.0000 C   0  0  0  0  0  0  0  0  0  0  0  0
    5.9132   -9.0569    0.0000 C   0  0  0  0  0  0  0  0  0  0  0  0
    6.2506   -8.3055    0.0000 N   0  0  0  0  0  0  0  0  0  0  0  0
    5.7665   -7.6384    0.0000 C   0  0  0  0  0  0  0  0  0  0  0  0
    4.9448   -7.7226    0.0000 C   0  0  0  0  0  0  0  0  0  0  0  0
    7.0635   -8.2216    0.0000 C   0  0  0  0  0  0  0  0  0  0  0  0
    7.5426   -8.8836    0.0000 O   0  0  0  0  0  0  0  0  0  0  0  0
    7.3973   -7.4757    0.0000 C   0  0  0  0  0  0  0  0  0  0  0  0
    8.2104   -7.3958    0.0000 C   0  0  0  0  0  0  0  0  0  0  0  0
    8.5442   -6.6507    0.0000 C   0  0  0  0  0  0  0  0  0  0  0  0
    8.0649   -5.9877    0.0000 C   0  0  0  0  0  0  0  0  0  0  0  0
    7.2481   -6.0747    0.0000 C   0  0  0  0  0  0  0  0  0  0  0  0
    6.9181   -6.8200    0.0000 C   0  0  0  0  0  0  0  0  0  0  0  0
    6.3923   -9.7189    0.0000 C   0  0  0  0  0  0  0  0  0  0  0  0
    6.0577  -10.4619    0.0000 C   0  0  0  0  0  0  0  0  0  0  0  0
    6.5360  -11.1235    0.0000 C   0  0  0  0  0  0  0  0  0  0  0  0
    7.3498  -11.0400    0.0000 C   0  0  0  0  0  0  0  0  0  0  0  0
    7.6829  -10.2891    0.0000 C   0  0  0  0  0  0  0  0  0  0  0  0
    7.2025   -9.6306    0.0000 C   0  0  0  0  0  0  0  0  0  0  0  0
  1  2  2  0
  2  3  1  0
  3  6  2  0
  5  4  2  0
  4  1  1  0
  5  6  1  0
  6  7  1  0
  7  9  1  0
  8  5  1  0
  8  9  2  0
  8 13  1  0
  9 10  1  0
 10 11  1  0
 11 12  1  0
 12 13  1  0
 11 14  1  0
 14 15  2  0
 14 16  1  0
 16 17  2  0
 17 18  1  0
 18 19  2  0
 19 20  1  0
 20 21  2  0
 21 16  1  0
 10 22  1  0
 22 23  2  0
 23 24  1  0
 24 25  2  0
 25 26  1  0
 26 27  2  0
 27 22  1  0
M  END
>  <Curated_InChIs>  (126) 
InChI=1S/C24H20N2O/c27-24(18-11-5-2-6-12-18)26-16-15-20-19-13-7-8-14-21(19)25-22(20)23(26)17-9-3-1-4-10-17/h1-14,23,25H,15-16H2

>  <threshold>  (126) 
5

>  <pchembl>  (126) 
6.71, 5.56, 5.7

>  <Classification>  (126) 
1

>  <source>  (126) 
chembl_28

>  <SMILES>  (126) 
O=C(c1ccccc1)N1CCc2c([nH]c3ccccc23)C1c1ccccc1

>  <InChIKey>  (126) 
PZQCDTFVPWETSB-UHFFFAOYSA-N

$$$$

     RDKit          2D

 36 41  0  0  0  0  0  0  0  0999 V2000
   17.5239   -4.4683    0.0000 C   0  0  0  0  0  0  0  0  0  0  0  0
   18.2336   -4.0589    0.0000 N   0  0  0  0  0  0  0  0  0  0  0  0
   18.2308   -3.2362    0.0000 C   0  0  0  0  0  0  0  0  0  0  0  0
   17.5222   -2.8310    0.0000 N   0  0  0  0  0  0  0  0  0  0  0  0
   18.9339   -2.8263    0.0000 C   0  0  0  0  0  0  0  0  0  0  0  0
   19.6434   -3.2339    0.0000 C   0  0  0  0  0  0  0  0  0  0  0  0
   20.3491   -2.8233    0.0000 N   0  0  0  0  0  0  0  0  0  0  0  0
   20.3465   -2.0053    0.0000 C   0  0  0  0  0  0  0  0  0  0  0  0
   19.6323   -1.5995    0.0000 C   0  0  0  0  0  0  0  0  0  0  0  0
   18.9295   -2.0124    0.0000 C   0  0  0  0  0  0  0  0  0  0  0  0
   16.8159   -4.0594    0.0000 C   0  0  0  0  0  0  0  0  0  0  0  0
   16.8171   -3.2429    0.0000 C   0  0  0  0  0  0  0  0  0  0  0  0
   16.0409   -2.9893    0.0000 S   0  0  0  0  0  0  0  0  0  0  0  0
   16.0390   -4.3105    0.0000 C   0  0  0  0  0  0  0  0  0  0  0  0
   15.5580   -3.6461    0.0000 C   0  0  0  0  0  0  0  0  0  0  0  0
   14.7467   -3.7299    0.0000 C   0  0  0  0  0  0  0  0  0  0  0  0
   14.4099   -4.4771    0.0000 C   0  0  0  0  0  0  0  0  0  0  0  0
   14.8909   -5.1415    0.0000 C   0  0  0  0  0  0  0  0  0  0  0  0
   15.7085   -5.0587    0.0000 C   0  0  0  0  0  0  0  0  0  0  0  0
   13.5970   -4.5600    0.0000 C   0  0  0  0  0  0  0  0  0  0  0  0
   17.5237   -5.2855    0.0000 N   0  0  0  0  0  0  0  0  0  0  0  0
   16.8147   -5.6878    0.0000 C   0  0  0  0  0  0  0  0  0  0  0  0
   16.8125   -6.5014    0.0000 C   0  0  0  0  0  0  0  0  0  0  0  0
   17.5183   -6.9140    0.0000 N   0  0  0  0  0  0  0  0  0  0  0  0
   18.2279   -6.5068    0.0000 C   0  0  0  0  0  0  0  0  0  0  0  0
   18.2318   -5.6870    0.0000 C   0  0  0  0  0  0  0  0  0  0  0  0
   17.5150   -7.7312    0.0000 C   0  0  0  0  0  0  0  0  0  0  0  0
   16.8057   -8.1369    0.0000 C   0  0  0  0  0  0  0  0  0  0  0  0
   18.2211   -8.1426    0.0000 C   0  0  0  0  0  0  0  0  0  0  0  0
   18.2178   -8.9598    0.0000 N   0  0  0  0  0  0  0  0  0  0  0  0
   18.9304   -7.7369    0.0000 O   0  0  0  0  0  0  0  0  0  0  0  0
   16.1018   -7.7240    0.0000 C   0  0  0  0  0  0  0  0  0  0  0  0
   15.3929   -8.1291    0.0000 C   0  0  0  0  0  0  0  0  0  0  0  0
   15.3892   -8.9471    0.0000 C   0  0  0  0  0  0  0  0  0  0  0  0
   16.1002   -9.3584    0.0000 C   0  0  0  0  0  0  0  0  0  0  0  0
   16.8062   -8.9510    0.0000 C   0  0  0  0  0  0  0  0  0  0  0  0
 11  1  1  0
  1  2  2  0
  2  3  1  0
  3  4  2  0
  4 12  1  0
  5  6  2  0
  6  7  1  0
  7  8  2  0
  8  9  1  0
  9 10  2  0
 10  5  1  0
  3  5  1  0
 11 12  2  0
 12 13  1  0
 13 15  1  0
 14 11  1  0
 14 15  2  0
 14 19  1  0
 15 16  1  0
 16 17  1  0
 17 18  1  0
 18 19  1  0
 17 20  1  0
  1 21  1  0
 21 22  1  0
 21 26  1  0
 22 23  1  0
 23 24  1  0
 24 25  1  0
 25 26  1  0
 24 27  1  0
 27 28  1  0
 27 29  1  0
 29 30  1  0
 29 31  2  0
 28 32  2  0
 32 33  1  0
 33 34  2  0
 34 35  1  0
 35 36  2  0
 36 28  1  0
M  END
>  <Curated_InChIs>  (127) 
InChI=1S/C28H30N6OS/c1-18-9-10-21-22(16-18)36-28-23(21)27(31-26(32-28)20-8-5-11-30-17-20)34-14-12-33(13-15-34)24(25(29)35)19-6-3-2-4-7-19/h2-8,11,17-18,24H,9-10,12-16H2,1H3,(H2,29,35)

>  <threshold>  (127) 
5

>  <pchembl>  (127) 
5.62

>  <Classification>  (127) 
1

>  <source>  (127) 
chembl_28

>  <SMILES>  (127) 
CC1CCc2c(sc3nc(-c4cccnc4)nc(N4CCN(C(C(N)=O)c5ccccc5)CC4)c23)C1

>  <InChIKey>  (127) 
QAWHHEOBNCCSJP-UHFFFAOYSA-N

$$$$

     RDKit          2D

 33 37  0  0  0  0  0  0  0  0999 V2000
   20.6981  -23.5582    0.0000 C   0  0  0  0  0  0  0  0  0  0  0  0
   20.6981  -24.3754    0.0000 C   0  0  0  0  0  0  0  0  0  0  0  0
   21.4033  -24.7799    0.0000 O   0  0  0  0  0  0  0  0  0  0  0  0
   21.4033  -23.1455    0.0000 C   0  0  0  0  0  0  0  0  0  0  0  0
   22.1086  -23.5582    0.0000 C   0  0  0  0  0  0  0  0  0  0  0  0
   22.1070  -24.3736    0.0000 C   0  0  0  0  0  0  0  0  0  0  0  0
   22.8112  -24.7809    0.0000 C   0  0  0  0  0  0  0  0  0  0  0  0
   23.5175  -24.3739    0.0000 C   0  0  0  0  0  0  0  0  0  0  0  0
   23.5152  -23.5554    0.0000 C   0  0  0  0  0  0  0  0  0  0  0  0
   22.8104  -23.1518    0.0000 C   0  0  0  0  0  0  0  0  0  0  0  0
   21.4033  -22.3283    0.0000 O   0  0  0  0  0  0  0  0  0  0  0  0
   19.9891  -23.1517    0.0000 O   0  0  0  0  0  0  0  0  0  0  0  0
   19.2826  -23.5624    0.0000 C   0  0  0  0  0  0  0  0  0  0  0  0
   18.5737  -23.1558    0.0000 C   0  0  0  0  0  0  0  0  0  0  0  0
   17.8672  -23.5665    0.0000 N   0  0  0  0  0  0  0  0  0  0  0  0
   18.5713  -22.3387    0.0000 O   0  0  0  0  0  0  0  0  0  0  0  0
   17.1583  -23.1600    0.0000 C   0  0  0  0  0  0  0  0  0  0  0  0
   17.1601  -22.3438    0.0000 C   0  0  0  0  0  0  0  0  0  0  0  0
   16.4521  -21.9374    0.0000 C   0  0  0  0  0  0  0  0  0  0  0  0
   16.4582  -23.5723    0.0000 C   0  0  0  0  0  0  0  0  0  0  0  0
   15.7496  -23.1695    0.0000 C   0  0  0  0  0  0  0  0  0  0  0  0
   15.7409  -22.3473    0.0000 C   0  0  0  0  0  0  0  0  0  0  0  0
   14.9563  -22.1014    0.0000 C   0  0  0  0  0  0  0  0  0  0  0  0
   14.4799  -22.7718    0.0000 O   0  0  0  0  0  0  0  0  0  0  0  0
   14.9703  -23.4318    0.0000 C   0  0  0  0  0  0  0  0  0  0  0  0
   14.6956  -21.3269    0.0000 O   0  0  0  0  0  0  0  0  0  0  0  0
   19.9919  -24.7855    0.0000 C   0  0  0  0  0  0  0  0  0  0  0  0
   19.2833  -24.3762    0.0000 C   0  0  0  0  0  0  0  0  0  0  0  0
   18.5767  -24.7852    0.0000 C   0  0  0  0  0  0  0  0  0  0  0  0
   18.5774  -25.6032    0.0000 C   0  0  0  0  0  0  0  0  0  0  0  0
   19.2907  -26.0106    0.0000 C   0  0  0  0  0  0  0  0  0  0  0  0
   19.9944  -25.5994    0.0000 C   0  0  0  0  0  0  0  0  0  0  0  0
   20.7038  -26.0050    0.0000 Cl  0  0  0  0  0  0  0  0  0  0  0  0
  1  2  2  0
  1  4  1  0
  2  3  1  0
  3  6  1  0
  5  4  1  0
  5  6  2  0
  6  7  1  0
  7  8  2  0
  8  9  1  0
  9 10  2  0
 10  5  1  0
  4 11  2  0
  1 12  1  0
 12 13  1  0
 13 14  1  0
 14 15  1  0
 14 16  2  0
 15 17  1  0
 17 18  2  0
 18 19  1  0
 19 22  2  0
 21 20  2  0
 20 17  1  0
 21 22  1  0
 22 23  1  0
 23 24  1  0
 24 25  1  0
 25 21  1  0
 23 26  2  0
 27 28  2  0
 28 29  1  0
 29 30  2  0
 30 31  1  0
 31 32  2  0
 32 27  1  0
  2 27  1  0
 32 33  1  0
M  END
>  <Curated_InChIs>  (128) 
InChI=1S/C25H16ClNO6/c26-19-7-3-1-5-17(19)23-24(22(29)18-6-2-4-8-20(18)33-23)31-13-21(28)27-15-9-10-16-14(11-15)12-32-25(16)30/h1-11H,12-13H2,(H,27,28)

>  <threshold>  (128) 
5

>  <pchembl>  (128) 
5.54

>  <Classification>  (128) 
1

>  <source>  (128) 
chembl_28

>  <SMILES>  (128) 
O=C(COc1c(-c2ccccc2Cl)oc2ccccc2c1=O)Nc1ccc2c(c1)COC2=O

>  <InChIKey>  (128) 
QCKIWMNSBLREPR-UHFFFAOYSA-N

$$$$

     RDKit          2D

 37 40  0  0  0  0  0  0  0  0999 V2000
    2.8891  -14.1646    0.0000 C   0  0  0  0  0  0  0  0  0  0  0  0
    2.8932  -14.9901    0.0000 C   0  0  0  0  0  0  0  0  0  0  0  0
    3.5989  -13.7561    0.0000 C   0  0  0  0  0  0  0  0  0  0  0  0
    4.3047  -14.1646    0.0000 C   0  0  0  0  0  0  0  0  0  0  0  0
    4.3047  -14.9901    0.0000 C   0  0  0  0  0  0  0  0  0  0  0  0
    3.5989  -15.3987    0.0000 C   0  0  0  0  0  0  0  0  0  0  0  0
    2.1008  -13.9170    0.0000 C   0  0  0  0  0  0  0  0  0  0  0  0
    1.6179  -14.5856    0.0000 O   0  0  0  0  0  0  0  0  0  0  0  0
    2.1131  -15.2419    0.0000 C   0  0  0  0  0  0  0  0  0  0  0  0
    1.8531  -13.1370    0.0000 O   0  0  0  0  0  0  0  0  0  0  0  0
    5.0127  -15.3983    0.0000 N   0  0  0  0  0  0  0  0  0  0  0  0
    5.7201  -14.9892    0.0000 C   0  0  0  0  0  0  0  0  0  0  0  0
    6.4281  -15.3974    0.0000 C   0  0  0  0  0  0  0  0  0  0  0  0
    5.7196  -14.1721    0.0000 O   0  0  0  0  0  0  0  0  0  0  0  0
    7.1355  -14.9884    0.0000 O   0  0  0  0  0  0  0  0  0  0  0  0
    7.8435  -15.3966    0.0000 C   0  0  0  0  0  0  0  0  0  0  0  0
    7.8395  -16.2128    0.0000 C   0  0  0  0  0  0  0  0  0  0  0  0
    8.5466  -16.6209    0.0000 C   0  0  0  0  0  0  0  0  0  0  0  0
    9.2550  -16.2118    0.0000 C   0  0  0  0  0  0  0  0  0  0  0  0
    9.2519  -15.3904    0.0000 C   0  0  0  0  0  0  0  0  0  0  0  0
    8.5442  -14.9860    0.0000 C   0  0  0  0  0  0  0  0  0  0  0  0
    9.9635  -16.6191    0.0000 C   0  0  0  0  0  0  0  0  0  0  0  0
    9.9651  -17.4363    0.0000 O   0  0  0  0  0  0  0  0  0  0  0  0
   10.6704  -16.2091    0.0000 C   0  0  0  0  0  0  0  0  0  0  0  0
   11.3789  -16.6163    0.0000 C   0  0  0  0  0  0  0  0  0  0  0  0
   12.0859  -16.2064    0.0000 C   0  0  0  0  0  0  0  0  0  0  0  0
   12.7907  -16.6163    0.0000 C   0  0  0  0  0  0  0  0  0  0  0  0
   13.4972  -16.2070    0.0000 C   0  0  0  0  0  0  0  0  0  0  0  0
   13.4960  -15.3889    0.0000 C   0  0  0  0  0  0  0  0  0  0  0  0
   12.7826  -14.9819    0.0000 C   0  0  0  0  0  0  0  0  0  0  0  0
   12.0791  -15.3935    0.0000 C   0  0  0  0  0  0  0  0  0  0  0  0
   14.2055  -16.6146    0.0000 O   0  0  0  0  0  0  0  0  0  0  0  0
   14.2024  -14.9780    0.0000 O   0  0  0  0  0  0  0  0  0  0  0  0
   12.7781  -14.1647    0.0000 O   0  0  0  0  0  0  0  0  0  0  0  0
   13.4836  -13.7522    0.0000 C   0  0  0  0  0  0  0  0  0  0  0  0
   14.9115  -15.3843    0.0000 C   0  0  0  0  0  0  0  0  0  0  0  0
   14.2067  -17.4317    0.0000 C   0  0  0  0  0  0  0  0  0  0  0  0
  2  1  1  0
  3  1  2  0
  4  3  1  0
  5  4  2  0
  6  2  2  0
  7  1  1  0
  8  7  1  0
  9  2  1  0
 10  7  2  0
  8  9  1  0
  6  5  1  0
  5 11  1  0
 11 12  1  0
 12 13  1  0
 12 14  2  0
 13 15  1  0
 15 16  1  0
 16 17  2  0
 17 18  1  0
 18 19  2  0
 19 20  1  0
 20 21  2  0
 21 16  1  0
 19 22  1  0
 22 23  2  0
 22 24  1  0
 24 25  2  0
 25 26  1  0
 26 27  2  0
 27 28  1  0
 28 29  2  0
 29 30  1  0
 30 31  2  0
 31 26  1  0
 28 32  1  0
 29 33  1  0
 30 34  1  0
 34 35  1  0
 33 36  1  0
 32 37  1  0
M  END
>  <Curated_InChIs>  (129) 
InChI=1S/C28H25NO8/c1-33-24-12-17(13-25(34-2)27(24)35-3)4-11-23(30)18-5-8-21(9-6-18)36-16-26(31)29-20-7-10-22-19(14-20)15-37-28(22)32/h4-14H,15-16H2,1-3H3,(H,29,31)

>  <threshold>  (129) 
5

>  <pchembl>  (129) 
5.07

>  <Classification>  (129) 
1

>  <source>  (129) 
chembl_28

>  <SMILES>  (129) 
COc1cc(/C=C/C(=O)c2ccc(OCC(=O)Nc3ccc4c(c3)COC4=O)cc2)cc(OC)c1OC

>  <InChIKey>  (129) 
QFXARAACOLICAC-NYYWCZLTSA-N

$$$$

     RDKit          2D

 25 28  0  0  0  0  0  0  0  0999 V2000
   39.1619  -31.2555    0.0000 C   0  0  0  0  0  0  0  0  0  0  0  0
   39.1607  -32.0750    0.0000 C   0  0  0  0  0  0  0  0  0  0  0  0
   39.8688  -32.4840    0.0000 C   0  0  0  0  0  0  0  0  0  0  0  0
   39.8670  -30.8466    0.0000 C   0  0  0  0  0  0  0  0  0  0  0  0
   40.5756  -31.2519    0.0000 C   0  0  0  0  0  0  0  0  0  0  0  0
   40.5763  -32.0709    0.0000 C   0  0  0  0  0  0  0  0  0  0  0  0
   41.2849  -32.4779    0.0000 N   0  0  0  0  0  0  0  0  0  0  0  0
   41.9931  -32.0671    0.0000 C   0  0  0  0  0  0  0  0  0  0  0  0
   41.9884  -31.2450    0.0000 N   0  0  0  0  0  0  0  0  0  0  0  0
   41.2793  -30.8416    0.0000 C   0  0  0  0  0  0  0  0  0  0  0  0
   42.7066  -32.4701    0.0000 C   0  0  0  0  0  0  0  0  0  0  0  0
   41.2750  -30.0245    0.0000 N   0  0  0  0  0  0  0  0  0  0  0  0
   41.9805  -29.6121    0.0000 C   0  0  0  0  0  0  0  0  0  0  0  0
   42.6858  -30.0203    0.0000 C   0  0  0  0  0  0  0  0  0  0  0  0
   43.3908  -29.6087    0.0000 C   0  0  0  0  0  0  0  0  0  0  0  0
   43.3869  -28.7906    0.0000 C   0  0  0  0  0  0  0  0  0  0  0  0
   42.6721  -28.3860    0.0000 C   0  0  0  0  0  0  0  0  0  0  0  0
   41.9700  -28.8000    0.0000 C   0  0  0  0  0  0  0  0  0  0  0  0
   42.7094  -33.2894    0.0000 C   0  0  0  0  0  0  0  0  0  0  0  0
   43.4220  -33.6923    0.0000 C   0  0  0  0  0  0  0  0  0  0  0  0
   44.1287  -33.2759    0.0000 C   0  0  0  0  0  0  0  0  0  0  0  0
   44.1183  -32.4523    0.0000 C   0  0  0  0  0  0  0  0  0  0  0  0
   43.4052  -32.0531    0.0000 C   0  0  0  0  0  0  0  0  0  0  0  0
   40.5651  -29.6196    0.0000 C   0  0  0  0  0  0  0  0  0  0  0  0
   44.1005  -30.0138    0.0000 F   0  0  0  0  0  0  0  0  0  0  0  0
  1  2  2  0
  2  3  1  0
  3  6  2  0
  5  4  2  0
  4  1  1  0
  5  6  1  0
  6  7  1  0
  7  8  2  0
  8  9  1  0
  9 10  2  0
 10  5  1  0
  8 11  1  0
 10 12  1  0
 12 13  1  0
 13 14  2  0
 14 15  1  0
 15 16  2  0
 16 17  1  0
 17 18  2  0
 18 13  1  0
 11 19  2  0
 19 20  1  0
 20 21  2  0
 21 22  1  0
 22 23  2  0
 23 11  1  0
 12 24  1  0
 15 25  1  0
M  END
>  <Curated_InChIs>  (130) 
InChI=1S/C21H16FN3/c1-25(17-11-7-10-16(22)14-17)21-18-12-5-6-13-19(18)23-20(24-21)15-8-3-2-4-9-15/h2-14H,1H3

>  <threshold>  (130) 
5

>  <pchembl>  (130) 
5.4

>  <Classification>  (130) 
1

>  <source>  (130) 
chembl_28

>  <SMILES>  (130) 
CN(c1cccc(F)c1)c1nc(-c2ccccc2)nc2ccccc12

>  <InChIKey>  (130) 
QTFMREGMWNPCDH-UHFFFAOYSA-N

$$$$

     RDKit          2D

 18 20  0  0  0  0  0  0  0  0999 V2000
    6.0667   -4.3792    0.0000 C   0  0  0  0  0  0  0  0  0  0  0  0
    5.3542   -4.7917    0.0000 C   0  0  0  0  0  0  0  0  0  0  0  0
    6.7792   -4.7917    0.0000 N   0  0  0  0  0  0  0  0  0  0  0  0
    6.0667   -3.5542    0.0000 N   0  0  0  0  0  0  0  0  0  0  0  0
    6.0667   -6.0292    0.0000 N   0  0  0  0  0  0  0  0  0  0  0  0
    6.7792   -5.6167    0.0000 C   0  0  0  0  0  0  0  0  0  0  0  0
    5.3542   -5.6167    0.0000 C   0  0  0  0  0  0  0  0  0  0  0  0
    6.7792   -3.1417    0.0000 C   0  0  0  0  0  0  0  0  0  0  0  0
    7.4917   -3.5542    0.0000 C   0  0  0  0  0  0  0  0  0  0  0  0
    8.2042   -3.1417    0.0000 C   0  0  0  0  0  0  0  0  0  0  0  0
    8.9292   -3.5625    0.0000 F   0  0  0  0  0  0  0  0  0  0  0  0
    4.6417   -4.3792    0.0000 C   0  0  0  0  0  0  0  0  0  0  0  0
    7.4917   -1.9000    0.0000 C   0  0  0  0  0  0  0  0  0  0  0  0
    6.7792   -2.3125    0.0000 C   0  0  0  0  0  0  0  0  0  0  0  0
    8.2042   -2.3125    0.0000 C   0  0  0  0  0  0  0  0  0  0  0  0
    4.6417   -6.0292    0.0000 C   0  0  0  0  0  0  0  0  0  0  0  0
    3.9250   -4.7917    0.0000 C   0  0  0  0  0  0  0  0  0  0  0  0
    3.9250   -5.6167    0.0000 C   0  0  0  0  0  0  0  0  0  0  0  0
  2  1  1  0
  3  1  2  0
  4  1  1  0
  5  6  2  0
  6  3  1  0
  7  2  2  0
  8  4  1  0
  9  8  2  0
 10  9  1  0
 11 10  1  0
 12  2  1  0
 13 14  2  0
 14  8  1  0
 15 13  1  0
 16  7  1  0
 17 12  2  0
 18 17  1  0
  7  5  1  0
 16 18  2  0
 10 15  2  0
M  END
>  <Curated_InChIs>  (131) 
InChI=1S/C14H10FN3/c15-10-4-3-5-11(8-10)18-14-12-6-1-2-7-13(12)16-9-17-14/h1-9H,(H,16,17,18)

>  <threshold>  (131) 
5

>  <pchembl>  (131) 
5.09

>  <Classification>  (131) 
1

>  <source>  (131) 
chembl_28

>  <SMILES>  (131) 
Fc1cccc(Nc2ncnc3ccccc23)c1

>  <InChIKey>  (131) 
QXULSIJDISMUNF-UHFFFAOYSA-N

$$$$

     RDKit          2D

 33 35  0  0  0  0  0  0  0  0999 V2000
   18.3455  -19.1792    0.0000 C   0  0  0  0  0  0  0  0  0  0  0  0
   18.3497  -20.0047    0.0000 C   0  0  0  0  0  0  0  0  0  0  0  0
   19.0554  -18.7706    0.0000 C   0  0  0  0  0  0  0  0  0  0  0  0
   19.7612  -19.1792    0.0000 C   0  0  0  0  0  0  0  0  0  0  0  0
   19.7612  -20.0047    0.0000 C   0  0  0  0  0  0  0  0  0  0  0  0
   19.0554  -20.4133    0.0000 C   0  0  0  0  0  0  0  0  0  0  0  0
   20.4691  -20.4128    0.0000 N   0  0  0  0  0  0  0  0  0  0  0  0
   21.1766  -20.0038    0.0000 C   0  0  0  0  0  0  0  0  0  0  0  0
   21.8845  -20.4120    0.0000 C   0  0  0  0  0  0  0  0  0  0  0  0
   21.1761  -19.1866    0.0000 O   0  0  0  0  0  0  0  0  0  0  0  0
   22.5920  -20.0030    0.0000 O   0  0  0  0  0  0  0  0  0  0  0  0
   23.3000  -20.4112    0.0000 C   0  0  0  0  0  0  0  0  0  0  0  0
   23.2959  -21.2274    0.0000 C   0  0  0  0  0  0  0  0  0  0  0  0
   24.0031  -21.6355    0.0000 C   0  0  0  0  0  0  0  0  0  0  0  0
   24.7115  -21.2264    0.0000 C   0  0  0  0  0  0  0  0  0  0  0  0
   24.7084  -20.4050    0.0000 C   0  0  0  0  0  0  0  0  0  0  0  0
   24.0007  -20.0006    0.0000 C   0  0  0  0  0  0  0  0  0  0  0  0
   25.4200  -21.6337    0.0000 C   0  0  0  0  0  0  0  0  0  0  0  0
   25.4216  -22.4508    0.0000 O   0  0  0  0  0  0  0  0  0  0  0  0
   26.1269  -21.2237    0.0000 C   0  0  0  0  0  0  0  0  0  0  0  0
   26.8354  -21.6309    0.0000 C   0  0  0  0  0  0  0  0  0  0  0  0
   27.5423  -21.2210    0.0000 C   0  0  0  0  0  0  0  0  0  0  0  0
   28.2472  -21.6308    0.0000 C   0  0  0  0  0  0  0  0  0  0  0  0
   28.9537  -21.2216    0.0000 C   0  0  0  0  0  0  0  0  0  0  0  0
   28.9525  -20.4035    0.0000 C   0  0  0  0  0  0  0  0  0  0  0  0
   28.2390  -19.9964    0.0000 C   0  0  0  0  0  0  0  0  0  0  0  0
   27.5355  -20.4081    0.0000 C   0  0  0  0  0  0  0  0  0  0  0  0
   17.6371  -18.7719    0.0000 O   0  0  0  0  0  0  0  0  0  0  0  0
   17.6427  -20.4146    0.0000 O   0  0  0  0  0  0  0  0  0  0  0  0
   17.6356  -17.9547    0.0000 C   0  0  0  0  0  0  0  0  0  0  0  0
   16.9342  -20.0074    0.0000 C   0  0  0  0  0  0  0  0  0  0  0  0
   29.6620  -21.6291    0.0000 O   0  0  0  0  0  0  0  0  0  0  0  0
   29.6631  -22.4463    0.0000 C   0  0  0  0  0  0  0  0  0  0  0  0
  2  1  2  0
  3  1  1  0
  4  3  2  0
  5  4  1  0
  6  2  1  0
  6  5  2  0
  5  7  1  0
  7  8  1  0
  8  9  1  0
  8 10  2  0
  9 11  1  0
 11 12  1  0
 12 13  2  0
 13 14  1  0
 14 15  2  0
 15 16  1  0
 16 17  2  0
 17 12  1  0
 15 18  1  0
 18 19  2  0
 18 20  1  0
 20 21  2  0
 21 22  1  0
 22 23  2  0
 23 24  1  0
 24 25  2  0
 25 26  1  0
 26 27  2  0
 27 22  1  0
  1 28  1  0
  2 29  1  0
 28 30  1  0
 29 31  1  0
 24 32  1  0
 32 33  1  0
M  END
>  <Curated_InChIs>  (132) 
InChI=1S/C26H25NO6/c1-30-22-6-4-5-18(15-22)7-13-23(28)19-8-11-21(12-9-19)33-17-26(29)27-20-10-14-24(31-2)25(16-20)32-3/h4-16H,17H2,1-3H3,(H,27,29)

>  <threshold>  (132) 
5

>  <pchembl>  (132) 
5.45

>  <Classification>  (132) 
1

>  <source>  (132) 
chembl_28

>  <SMILES>  (132) 
COc1cccc(/C=C/C(=O)c2ccc(OCC(=O)Nc3ccc(OC)c(OC)c3)cc2)c1

>  <InChIKey>  (132) 
RNRVTSXHRJZLKK-NTUHNPAUSA-N

$$$$

     RDKit          2D

 29 33  0  0  0  0  0  0  0  0999 V2000
   13.0406   -9.9713    0.0000 C   0  0  0  0  0  0  0  0  0  0  0  0
   13.0395  -10.7909    0.0000 C   0  0  0  0  0  0  0  0  0  0  0  0
   13.7475  -11.1998    0.0000 C   0  0  0  0  0  0  0  0  0  0  0  0
   13.7457   -9.5625    0.0000 C   0  0  0  0  0  0  0  0  0  0  0  0
   14.4544   -9.9677    0.0000 C   0  0  0  0  0  0  0  0  0  0  0  0
   14.4546  -10.7909    0.0000 C   0  0  0  0  0  0  0  0  0  0  0  0
   15.2376  -11.0451    0.0000 N   0  0  0  0  0  0  0  0  0  0  0  0
   15.2372   -9.7132    0.0000 C   0  0  0  0  0  0  0  0  0  0  0  0
   15.7214  -10.3803    0.0000 C   0  0  0  0  0  0  0  0  0  0  0  0
   16.5367  -10.2950    0.0000 C   0  0  0  0  0  0  0  0  0  0  0  0
   16.8741   -9.5436    0.0000 N   0  0  0  0  0  0  0  0  0  0  0  0
   16.3899   -8.8765    0.0000 C   0  0  0  0  0  0  0  0  0  0  0  0
   15.5683   -8.9608    0.0000 C   0  0  0  0  0  0  0  0  0  0  0  0
   17.6870   -9.4597    0.0000 C   0  0  0  0  0  0  0  0  0  0  0  0
   18.1661  -10.1218    0.0000 O   0  0  0  0  0  0  0  0  0  0  0  0
   18.0208   -8.7138    0.0000 C   0  0  0  0  0  0  0  0  0  0  0  0
   18.8339   -8.6340    0.0000 C   0  0  0  0  0  0  0  0  0  0  0  0
   19.1677   -7.8889    0.0000 C   0  0  0  0  0  0  0  0  0  0  0  0
   18.6884   -7.2259    0.0000 C   0  0  0  0  0  0  0  0  0  0  0  0
   17.8716   -7.3128    0.0000 C   0  0  0  0  0  0  0  0  0  0  0  0
   17.5416   -8.0581    0.0000 C   0  0  0  0  0  0  0  0  0  0  0  0
   17.0166  -10.9537    0.0000 C   0  0  0  0  0  0  0  0  0  0  0  0
   16.6811  -11.7001    0.0000 C   0  0  0  0  0  0  0  0  0  0  0  0
   17.1595  -12.3617    0.0000 C   0  0  0  0  0  0  0  0  0  0  0  0
   17.9733  -12.2781    0.0000 C   0  0  0  0  0  0  0  0  0  0  0  0
   18.3064  -11.5273    0.0000 C   0  0  0  0  0  0  0  0  0  0  0  0
   17.8260  -10.8688    0.0000 C   0  0  0  0  0  0  0  0  0  0  0  0
   16.8254  -13.1074    0.0000 Cl  0  0  0  0  0  0  0  0  0  0  0  0
   18.4533  -12.9395    0.0000 Cl  0  0  0  0  0  0  0  0  0  0  0  0
  1  2  2  0
  2  3  1  0
  3  6  2  0
  5  4  2  0
  4  1  1  0
  5  6  1  0
  6  7  1  0
  7  9  1  0
  8  5  1  0
  8  9  2  0
  8 13  1  0
  9 10  1  0
 10 11  1  0
 11 12  1  0
 12 13  1  0
 11 14  1  0
 14 15  2  0
 14 16  1  0
 16 17  2  0
 17 18  1  0
 18 19  2  0
 19 20  1  0
 20 21  2  0
 21 16  1  0
 22 23  2  0
 23 24  1  0
 24 25  2  0
 25 26  1  0
 26 27  2  0
 27 22  1  0
 10 22  1  0
 24 28  1  0
 25 29  1  0
M  END
>  <Curated_InChIs>  (133) 
InChI=1S/C24H18Cl2N2O/c25-19-11-10-16(14-20(19)26)23-22-18(17-8-4-5-9-21(17)27-22)12-13-28(23)24(29)15-6-2-1-3-7-15/h1-11,14,23,27H,12-13H2

>  <threshold>  (133) 
5

>  <pchembl>  (133) 
7.51, 6.58, 6.48, 6.44

>  <Classification>  (133) 
1

>  <source>  (133) 
chembl_28

>  <SMILES>  (133) 
O=C(c1ccccc1)N1CCc2c([nH]c3ccccc23)C1c1ccc(Cl)c(Cl)c1

>  <InChIKey>  (133) 
RSDQYWPOMZZGPK-UHFFFAOYSA-N

$$$$

     RDKit          2D

 18 20  0  0  0  0  0  0  0  0999 V2000
    2.1214   -2.2000    0.0000 O   0  0  0  0  0  0  0  0  0  0  0  0
    4.9793   -0.5500    0.0000 N   0  0  0  0  0  0  0  0  0  0  0  0
    4.2648    0.6875    0.0000 N   0  0  0  0  0  0  0  0  0  0  0  0
    4.9793    1.9250    0.0000 N   0  0  0  0  0  0  0  0  0  0  0  0
    5.6938    0.6875    0.0000 C   0  0  0  0  0  0  0  0  0  0  0  0
    4.9793    0.2750    0.0000 C   0  0  0  0  0  0  0  0  0  0  0  0
    5.6938    1.5125    0.0000 C   0  0  0  0  0  0  0  0  0  0  0  0
    4.2648   -0.9625    0.0000 C   0  0  0  0  0  0  0  0  0  0  0  0
    6.4083    0.2750    0.0000 C   0  0  0  0  0  0  0  0  0  0  0  0
    6.4083    1.9250    0.0000 C   0  0  0  0  0  0  0  0  0  0  0  0
    4.2648    1.5125    0.0000 C   0  0  0  0  0  0  0  0  0  0  0  0
    7.1227    0.6875    0.0000 C   0  0  0  0  0  0  0  0  0  0  0  0
    4.2648   -1.7875    0.0000 C   0  0  0  0  0  0  0  0  0  0  0  0
    3.5504   -0.5500    0.0000 C   0  0  0  0  0  0  0  0  0  0  0  0
    7.1227    1.5125    0.0000 C   0  0  0  0  0  0  0  0  0  0  0  0
    2.8359   -1.7875    0.0000 C   0  0  0  0  0  0  0  0  0  0  0  0
    3.5504   -2.2000    0.0000 C   0  0  0  0  0  0  0  0  0  0  0  0
    2.8359   -0.9625    0.0000 C   0  0  0  0  0  0  0  0  0  0  0  0
  1 16  1  0
  2  6  1  0
  2  8  1  0
  3  6  2  0
  3 11  1  0
  4  7  1  0
  4 11  2  0
  5  6  1  0
  5  7  2  0
  5  9  1  0
  7 10  1  0
  8 13  2  0
  8 14  1  0
  9 12  2  0
 10 15  2  0
 12 15  1  0
 13 17  1  0
 14 18  2  0
 16 17  2  0
 16 18  1  0
M  END
>  <Curated_InChIs>  (134) 
InChI=1S/C14H11N3O/c18-11-7-5-10(6-8-11)17-14-12-3-1-2-4-13(12)15-9-16-14/h1-9,18H,(H,15,16,17)

>  <threshold>  (134) 
5

>  <pchembl>  (134) 
5.58

>  <Classification>  (134) 
1

>  <source>  (134) 
chembl_28

>  <SMILES>  (134) 
Oc1ccc(Nc2ncnc3ccccc23)cc1

>  <InChIKey>  (134) 
RWLYIYZYVWCDJW-UHFFFAOYSA-N

$$$$

     RDKit          2D

 31 35  0  0  0  0  0  0  0  0999 V2000
   23.3174   -4.7710    0.0000 C   0  0  0  0  0  0  0  0  0  0  0  0
   23.3163   -5.5906    0.0000 C   0  0  0  0  0  0  0  0  0  0  0  0
   24.0243   -5.9995    0.0000 C   0  0  0  0  0  0  0  0  0  0  0  0
   24.0225   -4.3622    0.0000 C   0  0  0  0  0  0  0  0  0  0  0  0
   24.7312   -4.7674    0.0000 C   0  0  0  0  0  0  0  0  0  0  0  0
   24.7314   -5.5906    0.0000 C   0  0  0  0  0  0  0  0  0  0  0  0
   25.5144   -5.8448    0.0000 N   0  0  0  0  0  0  0  0  0  0  0  0
   25.5140   -4.5129    0.0000 C   0  0  0  0  0  0  0  0  0  0  0  0
   25.9982   -5.1800    0.0000 C   0  0  0  0  0  0  0  0  0  0  0  0
   26.8135   -5.0947    0.0000 C   0  0  0  0  0  0  0  0  0  0  0  0
   27.1509   -4.3433    0.0000 N   0  0  0  0  0  0  0  0  0  0  0  0
   26.6667   -3.6762    0.0000 C   0  0  0  0  0  0  0  0  0  0  0  0
   25.8451   -3.7605    0.0000 C   0  0  0  0  0  0  0  0  0  0  0  0
   27.9638   -4.2594    0.0000 C   0  0  0  0  0  0  0  0  0  0  0  0
   28.4429   -4.9215    0.0000 O   0  0  0  0  0  0  0  0  0  0  0  0
   28.2976   -3.5135    0.0000 C   0  0  0  0  0  0  0  0  0  0  0  0
   29.1107   -3.4337    0.0000 C   0  0  0  0  0  0  0  0  0  0  0  0
   29.4445   -2.6886    0.0000 C   0  0  0  0  0  0  0  0  0  0  0  0
   28.9652   -2.0256    0.0000 C   0  0  0  0  0  0  0  0  0  0  0  0
   28.1484   -2.1125    0.0000 C   0  0  0  0  0  0  0  0  0  0  0  0
   27.8184   -2.8578    0.0000 C   0  0  0  0  0  0  0  0  0  0  0  0
   27.2934   -5.7534    0.0000 C   0  0  0  0  0  0  0  0  0  0  0  0
   26.9579   -6.4998    0.0000 C   0  0  0  0  0  0  0  0  0  0  0  0
   27.4363   -7.1614    0.0000 C   0  0  0  0  0  0  0  0  0  0  0  0
   28.2501   -7.0778    0.0000 C   0  0  0  0  0  0  0  0  0  0  0  0
   28.5832   -6.3270    0.0000 C   0  0  0  0  0  0  0  0  0  0  0  0
   28.1028   -5.6685    0.0000 C   0  0  0  0  0  0  0  0  0  0  0  0
   27.1022   -7.9071    0.0000 Cl  0  0  0  0  0  0  0  0  0  0  0  0
   28.7301   -7.7392    0.0000 Cl  0  0  0  0  0  0  0  0  0  0  0  0
   22.6096   -4.3626    0.0000 O   0  0  0  0  0  0  0  0  0  0  0  0
   22.6094   -3.5454    0.0000 C   0  0  0  0  0  0  0  0  0  0  0  0
  1  2  2  0
  2  3  1  0
  3  6  2  0
  5  4  2  0
  4  1  1  0
  5  6  1  0
  6  7  1  0
  7  9  1  0
  8  5  1  0
  8  9  2  0
  8 13  1  0
  9 10  1  0
 10 11  1  0
 11 12  1  0
 12 13  1  0
 11 14  1  0
 14 15  2  0
 14 16  1  0
 16 17  2  0
 17 18  1  0
 18 19  2  0
 19 20  1  0
 20 21  2  0
 21 16  1  0
 22 23  2  0
 23 24  1  0
 24 25  2  0
 25 26  1  0
 26 27  2  0
 27 22  1  0
 10 22  1  0
 24 28  1  0
 25 29  1  0
  1 30  1  0
 30 31  1  0
M  END
>  <Curated_InChIs>  (135) 
InChI=1S/C25H20Cl2N2O2/c1-31-17-8-10-22-19(14-17)18-11-12-29(25(30)15-5-3-2-4-6-15)24(23(18)28-22)16-7-9-20(26)21(27)13-16/h2-10,13-14,24,28H,11-12H2,1H3

>  <threshold>  (135) 
5

>  <pchembl>  (135) 
7.54, 6.52, 6.42

>  <Classification>  (135) 
1

>  <source>  (135) 
chembl_28

>  <SMILES>  (135) 
COc1ccc2[nH]c3c(c2c1)CCN(C(=O)c1ccccc1)C3c1ccc(Cl)c(Cl)c1

>  <InChIKey>  (135) 
RYPIBOITKCOASC-UHFFFAOYSA-N

$$$$

     RDKit          2D

 18 20  0  0  0  0  0  0  0  0999 V2000
    1.2042   -1.5042    0.0000 C   0  0  0  0  0  0  0  0  0  0  0  0
    0.6917   -1.8042    0.0000 C   0  0  0  0  0  0  0  0  0  0  0  0
    1.7292   -1.8000    0.0000 N   0  0  0  0  0  0  0  0  0  0  0  0
    1.2042   -0.9042    0.0000 N   0  0  0  0  0  0  0  0  0  0  0  0
    1.2125   -2.7042    0.0000 N   0  0  0  0  0  0  0  0  0  0  0  0
    1.7292   -2.4042    0.0000 C   0  0  0  0  0  0  0  0  0  0  0  0
    0.6917   -2.4042    0.0000 C   0  0  0  0  0  0  0  0  0  0  0  0
    1.7167   -0.5917    0.0000 C   0  0  0  0  0  0  0  0  0  0  0  0
    2.2375   -0.8917    0.0000 C   0  0  0  0  0  0  0  0  0  0  0  0
    2.7542   -0.6000    0.0000 C   0  0  0  0  0  0  0  0  0  0  0  0
    3.2667   -0.9000    0.0000 Br  0  0  0  0  0  0  0  0  0  0  0  0
    0.1667   -1.5042    0.0000 C   0  0  0  0  0  0  0  0  0  0  0  0
    2.2375    0.2958    0.0000 C   0  0  0  0  0  0  0  0  0  0  0  0
    1.7167   -0.0042    0.0000 C   0  0  0  0  0  0  0  0  0  0  0  0
    2.7542   -0.0042    0.0000 C   0  0  0  0  0  0  0  0  0  0  0  0
    0.1667   -2.7125    0.0000 C   0  0  0  0  0  0  0  0  0  0  0  0
   -0.3458   -1.8125    0.0000 C   0  0  0  0  0  0  0  0  0  0  0  0
   -0.3458   -2.4125    0.0000 C   0  0  0  0  0  0  0  0  0  0  0  0
  2  1  1  0
  3  1  2  0
  4  1  1  0
  5  6  2  0
  6  3  1  0
  7  2  2  0
  8  4  1  0
  9  8  2  0
 10  9  1  0
 11 10  1  0
 12  2  1  0
 13 14  2  0
 14  8  1  0
 15 13  1  0
 16  7  1  0
 17 12  2  0
 18 17  1  0
  7  5  1  0
 16 18  2  0
 10 15  2  0
M  END
>  <Curated_InChIs>  (136) 
InChI=1S/C14H10BrN3/c15-10-4-3-5-11(8-10)18-14-12-6-1-2-7-13(12)16-9-17-14/h1-9H,(H,16,17,18)

>  <threshold>  (136) 
5

>  <pchembl>  (136) 
5.97, 5.83

>  <Classification>  (136) 
1

>  <source>  (136) 
chembl_28

>  <SMILES>  (136) 
Brc1cccc(Nc2ncnc3ccccc23)c1

>  <InChIKey>  (136) 
SUTRLYZWRGPLSJ-UHFFFAOYSA-N

$$$$

     RDKit          2D

 34 38  0  0  0  0  0  0  0  0999 V2000
   18.7500   -3.7888    0.0000 C   0  0  0  0  0  0  0  0  0  0  0  0
   18.7500   -4.6101    0.0000 C   0  0  0  0  0  0  0  0  0  0  0  0
   19.4594   -5.0187    0.0000 O   0  0  0  0  0  0  0  0  0  0  0  0
   19.4594   -3.3761    0.0000 C   0  0  0  0  0  0  0  0  0  0  0  0
   20.1647   -3.7888    0.0000 C   0  0  0  0  0  0  0  0  0  0  0  0
   20.1631   -4.6083    0.0000 C   0  0  0  0  0  0  0  0  0  0  0  0
   20.8714   -5.0197    0.0000 C   0  0  0  0  0  0  0  0  0  0  0  0
   21.5819   -4.6086    0.0000 C   0  0  0  0  0  0  0  0  0  0  0  0
   21.5795   -3.7860    0.0000 C   0  0  0  0  0  0  0  0  0  0  0  0
   20.8706   -3.3824    0.0000 C   0  0  0  0  0  0  0  0  0  0  0  0
   19.4594   -2.5506    0.0000 O   0  0  0  0  0  0  0  0  0  0  0  0
   18.0388   -5.0239    0.0000 O   0  0  0  0  0  0  0  0  0  0  0  0
   17.3263   -4.6122    0.0000 C   0  0  0  0  0  0  0  0  0  0  0  0
   16.6151   -5.0259    0.0000 C   0  0  0  0  0  0  0  0  0  0  0  0
   15.9027   -4.6142    0.0000 N   0  0  0  0  0  0  0  0  0  0  0  0
   16.6163   -5.8472    0.0000 O   0  0  0  0  0  0  0  0  0  0  0  0
   15.1914   -5.0280    0.0000 C   0  0  0  0  0  0  0  0  0  0  0  0
   13.7740   -5.8499    0.0000 C   0  0  0  0  0  0  0  0  0  0  0  0
   14.4914   -6.2573    0.0000 C   0  0  0  0  0  0  0  0  0  0  0  0
   15.1951   -5.8460    0.0000 C   0  0  0  0  0  0  0  0  0  0  0  0
   18.0394   -3.3844    0.0000 C   0  0  0  0  0  0  0  0  0  0  0  0
   18.0383   -2.5620    0.0000 C   0  0  0  0  0  0  0  0  0  0  0  0
   17.3261   -2.1514    0.0000 C   0  0  0  0  0  0  0  0  0  0  0  0
   16.6145   -2.5662    0.0000 C   0  0  0  0  0  0  0  0  0  0  0  0
   16.6195   -3.3918    0.0000 C   0  0  0  0  0  0  0  0  0  0  0  0
   17.3323   -3.7945    0.0000 C   0  0  0  0  0  0  0  0  0  0  0  0
   13.7732   -5.0277    0.0000 C   0  0  0  0  0  0  0  0  0  0  0  0
   14.4841   -4.6193    0.0000 C   0  0  0  0  0  0  0  0  0  0  0  0
   14.4863   -3.8028    0.0000 C   0  0  0  0  0  0  0  0  0  0  0  0
   13.7785   -3.3938    0.0000 C   0  0  0  0  0  0  0  0  0  0  0  0
   13.0669   -3.8031    0.0000 C   0  0  0  0  0  0  0  0  0  0  0  0
   13.0681   -4.6182    0.0000 C   0  0  0  0  0  0  0  0  0  0  0  0
   15.9009   -2.1565    0.0000 O   0  0  0  0  0  0  0  0  0  0  0  0
   15.8975   -1.3352    0.0000 C   0  0  0  0  0  0  0  0  0  0  0  0
  1  2  2  0
  1  4  1  0
  2  3  1  0
  3  6  1  0
  5  4  1  0
  5  6  2  0
  6  7  1  0
  7  8  2  0
  8  9  1  0
  9 10  2  0
 10  5  1  0
  4 11  2  0
  2 12  1  0
 12 13  1  0
 13 14  1  0
 14 15  1  0
 14 16  2  0
 15 17  1  0
 17 28  2  0
 27 18  2  0
 18 19  1  0
 19 20  2  0
 20 17  1  0
 21 22  2  0
 22 23  1  0
 23 24  2  0
 24 25  1  0
 25 26  2  0
 26 21  1  0
  1 21  1  0
 27 28  1  0
 28 29  1  0
 29 30  2  0
 30 31  1  0
 31 32  2  0
 32 27  1  0
 24 33  1  0
 33 34  1  0
M  END
>  <Curated_InChIs>  (137) 
InChI=1S/C28H21NO5/c1-32-20-15-13-19(14-16-20)26-27(31)22-10-4-5-12-24(22)34-28(26)33-17-25(30)29-23-11-6-8-18-7-2-3-9-21(18)23/h2-16H,17H2,1H3,(H,29,30)

>  <threshold>  (137) 
5

>  <pchembl>  (137) 
5.29

>  <Classification>  (137) 
1

>  <source>  (137) 
chembl_28

>  <SMILES>  (137) 
COc1ccc(-c2c(OCC(=O)Nc3cccc4ccccc34)oc3ccccc3c2=O)cc1

>  <InChIKey>  (137) 
SXOSJLKWNDDRLF-UHFFFAOYSA-N

$$$$

     RDKit          2D

 28 31  0  0  0  0  0  0  0  0999 V2000
   -3.7800    1.8600    0.0000 C   0  0  0  0  0  0  0  0  0  0  0  0
   -3.7800    0.4000    0.0000 C   0  0  0  0  0  0  0  0  0  0  0  0
   -2.5200   -0.3300    0.0000 C   0  0  0  0  0  0  0  0  0  0  0  0
   -2.5200    2.6000    0.0000 C   0  0  0  0  0  0  0  0  0  0  0  0
   -1.2800    1.8600    0.0000 C   0  0  0  0  0  0  0  0  0  0  0  0
   -1.2800    0.4000    0.0000 C   0  0  0  0  0  0  0  0  0  0  0  0
    0.0000   -0.3300    0.0000 N   0  0  0  0  0  0  0  0  0  0  0  0
    1.2600    1.8600    0.0000 C   0  0  0  0  0  0  0  0  0  0  0  0
    1.2600    0.4000    0.0000 C   0  0  0  0  0  0  0  0  0  0  0  0
    2.5200   -0.3300    0.0000 C   0  0  0  0  0  0  0  0  0  0  0  0
    2.5200    2.6000    0.0000 C   0  0  0  0  0  0  0  0  0  0  0  0
    3.8000    1.8600    0.0000 C   0  0  0  0  0  0  0  0  0  0  0  0
    3.8000    0.4000    0.0000 N   0  0  0  0  0  0  0  0  0  0  0  0
    5.0500   -0.3600    0.0000 C   0  0  0  0  0  0  0  0  0  0  0  0
    6.3600    0.4000    0.0000 C   0  0  0  0  0  0  0  0  0  0  0  0
    6.3600    1.8600    0.0000 N   0  0  0  0  0  0  0  0  0  0  0  0
    5.0500    2.5700    0.0000 C   0  0  0  0  0  0  0  0  0  0  0  0
   -5.0786   -0.3532    0.0000 O   0  0  0  0  0  0  0  0  0  0  0  0
   -5.0770   -1.5532    0.0000 C   0  0  0  0  0  0  0  0  0  0  0  0
    5.0381    3.7699    0.0000 O   0  0  0  0  0  0  0  0  0  0  0  0
    5.0377   -1.5599    0.0000 O   0  0  0  0  0  0  0  0  0  0  0  0
    7.3999   -0.1989    0.0000 C   0  0  0  0  0  0  0  0  0  0  0  0
    2.5070   -1.8312    0.0000 C   0  0  0  0  0  0  0  0  0  0  0  0
    1.2012   -2.5710    0.0000 C   0  0  0  0  0  0  0  0  0  0  0  0
    1.1907   -3.7710    0.0000 C   0  0  0  0  0  0  0  0  0  0  0  0
    0.1670   -1.9623    0.0000 C   0  0  0  0  0  0  0  0  0  0  0  0
   -5.0816    2.6082    0.0000 O   0  0  0  0  0  0  0  0  0  0  0  0
   -5.0846    3.8082    0.0000 C   0  0  0  0  0  0  0  0  0  0  0  0
  1  2  2  0
  2  3  1  0
  3  6  2  0
  5  4  2  0
  4  1  1  0
  5  6  1  0
  6  7  1  0
  7  9  1  0
  8  5  1  0
  8  9  2  0
  8 11  1  0
  9 10  1  0
 10 13  1  0
 12 11  1  6
 12 13  1  0
 12 17  1  0
 13 14  1  0
 14 15  1  0
 15 16  1  0
 16 17  1  0
  2 18  1  0
 18 19  1  0
 17 20  2  0
 14 21  2  0
 15 22  1  1
 10 23  1  1
 23 24  1  0
 24 25  1  0
 24 26  1  0
  1 27  1  0
 27 28  1  0
M  END
>  <Curated_InChIs>  (138) 
InChI=1S/C21H27N3O4/c1-10(2)6-15-19-13(7-16-20(25)22-11(3)21(26)24(15)16)12-8-17(27-4)18(28-5)9-14(12)23-19/h8-11,15-16,23H,6-7H2,1-5H3,(H,22,25)

>  <threshold>  (138) 
5

>  <pchembl>  (138) 
5.77

>  <Classification>  (138) 
1

>  <source>  (138) 
chembl_28

>  <SMILES>  (138) 
COc1cc2[nH]c3c(c2cc1OC)C[C@@H]1C(=O)N[C@@H](C)C(=O)N1[C@H]3CC(C)C

>  <InChIKey>  (138) 
TUPQWFMUKKBKJL-KNXALSJPSA-N

$$$$

     RDKit          2D

 29 33  0  0  0  0  0  0  0  0999 V2000
   33.7758  -19.2163    0.0000 C   0  0  0  0  0  0  0  0  0  0  0  0
   33.7747  -20.0359    0.0000 C   0  0  0  0  0  0  0  0  0  0  0  0
   34.4827  -20.4448    0.0000 C   0  0  0  0  0  0  0  0  0  0  0  0
   34.4809  -18.8075    0.0000 C   0  0  0  0  0  0  0  0  0  0  0  0
   35.1896  -19.2127    0.0000 C   0  0  0  0  0  0  0  0  0  0  0  0
   35.1898  -20.0359    0.0000 C   0  0  0  0  0  0  0  0  0  0  0  0
   35.9728  -20.2901    0.0000 N   0  0  0  0  0  0  0  0  0  0  0  0
   35.9724  -18.9582    0.0000 C   0  0  0  0  0  0  0  0  0  0  0  0
   36.4566  -19.6253    0.0000 C   0  0  0  0  0  0  0  0  0  0  0  0
   37.2718  -19.5400    0.0000 C   0  0  0  0  0  0  0  0  0  0  0  0
   37.6093  -18.7886    0.0000 N   0  0  0  0  0  0  0  0  0  0  0  0
   37.1251  -18.1215    0.0000 C   0  0  0  0  0  0  0  0  0  0  0  0
   36.3035  -18.2058    0.0000 C   0  0  0  0  0  0  0  0  0  0  0  0
   38.4222  -18.7047    0.0000 C   0  0  0  0  0  0  0  0  0  0  0  0
   38.9013  -19.3668    0.0000 O   0  0  0  0  0  0  0  0  0  0  0  0
   38.7560  -17.9588    0.0000 C   0  0  0  0  0  0  0  0  0  0  0  0
   39.5691  -17.8790    0.0000 C   0  0  0  0  0  0  0  0  0  0  0  0
   39.9029  -17.1339    0.0000 C   0  0  0  0  0  0  0  0  0  0  0  0
   39.4236  -16.4709    0.0000 C   0  0  0  0  0  0  0  0  0  0  0  0
   38.6068  -16.5578    0.0000 C   0  0  0  0  0  0  0  0  0  0  0  0
   38.2768  -17.3031    0.0000 C   0  0  0  0  0  0  0  0  0  0  0  0
   37.7518  -20.1987    0.0000 C   0  0  0  0  0  0  0  0  0  0  0  0
   37.4163  -20.9451    0.0000 C   0  0  0  0  0  0  0  0  0  0  0  0
   37.8947  -21.6067    0.0000 C   0  0  0  0  0  0  0  0  0  0  0  0
   38.7085  -21.5231    0.0000 C   0  0  0  0  0  0  0  0  0  0  0  0
   39.0416  -20.7723    0.0000 C   0  0  0  0  0  0  0  0  0  0  0  0
   38.5612  -20.1138    0.0000 C   0  0  0  0  0  0  0  0  0  0  0  0
   39.7564  -15.7245    0.0000 O   0  0  0  0  0  0  0  0  0  0  0  0
   40.5692  -15.6396    0.0000 C   0  0  0  0  0  0  0  0  0  0  0  0
  1  2  2  0
  2  3  1  0
  3  6  2  0
  5  4  2  0
  4  1  1  0
  5  6  1  0
  6  7  1  0
  7  9  1  0
  8  5  1  0
  8  9  2  0
  8 13  1  0
  9 10  1  0
 10 11  1  0
 11 12  1  0
 12 13  1  0
 11 14  1  0
 14 15  2  0
 14 16  1  0
 16 17  2  0
 17 18  1  0
 18 19  2  0
 19 20  1  0
 20 21  2  0
 21 16  1  0
 22 23  2  0
 23 24  1  0
 24 25  2  0
 25 26  1  0
 26 27  2  0
 27 22  1  0
 10 22  1  0
 19 28  1  0
 28 29  1  0
M  END
>  <Curated_InChIs>  (139) 
InChI=1S/C25H22N2O2/c1-29-19-13-11-18(12-14-19)25(28)27-16-15-21-20-9-5-6-10-22(20)26-23(21)24(27)17-7-3-2-4-8-17/h2-14,24,26H,15-16H2,1H3

>  <threshold>  (139) 
5

>  <pchembl>  (139) 
5.76

>  <Classification>  (139) 
1

>  <source>  (139) 
chembl_28

>  <SMILES>  (139) 
COc1ccc(C(=O)N2CCc3c([nH]c4ccccc34)C2c2ccccc2)cc1

>  <InChIKey>  (139) 
UDMGVMZJVDQOGN-UHFFFAOYSA-N

$$$$

     RDKit          2D

 29 32  0  0  0  0  0  0  0  0999 V2000
   13.5664  -17.7557    0.0000 N   0  0  0  0  0  0  0  0  0  0  0  0
   13.0449  -17.1378    0.0000 N   0  0  0  0  0  0  0  0  0  0  0  0
   12.2774  -17.4859    0.0000 C   0  0  0  0  0  0  0  0  0  0  0  0
   12.3752  -18.2943    0.0000 C   0  0  0  0  0  0  0  0  0  0  0  0
   13.1571  -18.4644    0.0000 C   0  0  0  0  0  0  0  0  0  0  0  0
   13.5795  -19.1459    0.0000 C   0  0  0  0  0  0  0  0  0  0  0  0
   13.1797  -19.8665    0.0000 C   0  0  0  0  0  0  0  0  0  0  0  0
   13.5881  -20.5735    0.0000 C   0  0  0  0  0  0  0  0  0  0  0  0
   14.4215  -20.5736    0.0000 C   0  0  0  0  0  0  0  0  0  0  0  0
   14.8173  -19.8535    0.0000 C   0  0  0  0  0  0  0  0  0  0  0  0
   14.4088  -19.1465    0.0000 C   0  0  0  0  0  0  0  0  0  0  0  0
   15.6214  -19.8405    0.0000 O   0  0  0  0  0  0  0  0  0  0  0  0
   16.0645  -20.5365    0.0000 C   0  0  0  0  0  0  0  0  0  0  0  0
   14.8395  -21.2560    0.0000 O   0  0  0  0  0  0  0  0  0  0  0  0
   15.6688  -21.2566    0.0000 C   0  0  0  0  0  0  0  0  0  0  0  0
   13.1965  -21.2931    0.0000 Cl  0  0  0  0  0  0  0  0  0  0  0  0
   11.5687  -17.0766    0.0000 C   0  0  0  0  0  0  0  0  0  0  0  0
   10.8629  -17.4852    0.0000 C   0  0  0  0  0  0  0  0  0  0  0  0
   10.1542  -17.0760    0.0000 C   0  0  0  0  0  0  0  0  0  0  0  0
    9.4485  -17.4846    0.0000 C   0  0  0  0  0  0  0  0  0  0  0  0
    8.7398  -17.0753    0.0000 C   0  0  0  0  0  0  0  0  0  0  0  0
    8.7409  -16.2575    0.0000 C   0  0  0  0  0  0  0  0  0  0  0  0
    9.4508  -15.8488    0.0000 C   0  0  0  0  0  0  0  0  0  0  0  0
   10.1554  -16.2581    0.0000 C   0  0  0  0  0  0  0  0  0  0  0  0
   10.8653  -15.8495    0.0000 C   0  0  0  0  0  0  0  0  0  0  0  0
   11.5698  -16.2587    0.0000 C   0  0  0  0  0  0  0  0  0  0  0  0
   14.3789  -17.6579    0.0000 C   0  0  0  0  0  0  0  0  0  0  0  0
   14.8755  -18.3267    0.0000 O   0  0  0  0  0  0  0  0  0  0  0  0
   14.7181  -16.9120    0.0000 C   0  0  0  0  0  0  0  0  0  0  0  0
  1  2  1  0
  2  3  2  0
  3  4  1  0
  4  5  1  0
  1  5  1  0
  5  6  1  0
  6  7  2  0
  7  8  1  0
  8  9  2  0
  9 10  1  0
 10 11  2  0
  6 11  1  0
 10 12  1  0
 12 13  1  0
  9 14  1  0
 14 15  1  0
  8 16  1  0
  3 17  1  0
 18 17  2  0
 18 19  1  0
 20 19  2  0
 21 20  1  0
 22 21  2  0
 23 22  1  0
 24 23  2  0
 24 19  1  0
 25 24  1  0
 26 25  2  0
 17 26  1  0
  1 27  1  0
 27 28  2  0
 27 29  1  0
M  END
>  <Curated_InChIs>  (140) 
InChI=1S/C23H21ClN2O3/c1-14(27)26-21(18-11-19(24)23(29-3)22(12-18)28-2)13-20(25-26)17-9-8-15-6-4-5-7-16(15)10-17/h4-12,21H,13H2,1-3H3

>  <threshold>  (140) 
5

>  <pchembl>  (140) 
5.13

>  <Classification>  (140) 
1

>  <source>  (140) 
chembl_28

>  <SMILES>  (140) 
COc1cc(C2CC(c3ccc4ccccc4c3)=NN2C(C)=O)cc(Cl)c1OC

>  <InChIKey>  (140) 
UFZRHSNHCGRLQR-UHFFFAOYSA-N

$$$$

     RDKit          2D

 24 27  0  0  0  0  0  0  0  0999 V2000
    0.1931    0.5119    0.0000 N   0  0  0  0  0  0  0  0  0  0  0  0
    0.9076    1.7494    0.0000 N   0  0  0  0  0  0  0  0  0  0  0  0
    0.9076   -0.7256    0.0000 N   0  0  0  0  0  0  0  0  0  0  0  0
    1.6221    0.5119    0.0000 C   0  0  0  0  0  0  0  0  0  0  0  0
    0.9076    0.0994    0.0000 C   0  0  0  0  0  0  0  0  0  0  0  0
    1.6221    1.3369    0.0000 C   0  0  0  0  0  0  0  0  0  0  0  0
    0.1931    1.3369    0.0000 C   0  0  0  0  0  0  0  0  0  0  0  0
   -0.5214    1.7494    0.0000 C   0  0  0  0  0  0  0  0  0  0  0  0
    2.3365    0.0994    0.0000 C   0  0  0  0  0  0  0  0  0  0  0  0
    2.3365    1.7494    0.0000 C   0  0  0  0  0  0  0  0  0  0  0  0
    1.6221   -1.1381    0.0000 C   0  0  0  0  0  0  0  0  0  0  0  0
    3.0510    0.5119    0.0000 C   0  0  0  0  0  0  0  0  0  0  0  0
    3.0510    1.3369    0.0000 C   0  0  0  0  0  0  0  0  0  0  0  0
   -1.2358    1.3369    0.0000 C   0  0  0  0  0  0  0  0  0  0  0  0
   -0.5214    2.5744    0.0000 C   0  0  0  0  0  0  0  0  0  0  0  0
    2.3365   -0.7256    0.0000 C   0  0  0  0  0  0  0  0  0  0  0  0
    1.6221   -1.9631    0.0000 C   0  0  0  0  0  0  0  0  0  0  0  0
    3.0510   -1.1381    0.0000 C   0  0  0  0  0  0  0  0  0  0  0  0
   -1.9503    1.7494    0.0000 C   0  0  0  0  0  0  0  0  0  0  0  0
   -1.2358    2.9869    0.0000 C   0  0  0  0  0  0  0  0  0  0  0  0
    2.3365   -2.3756    0.0000 C   0  0  0  0  0  0  0  0  0  0  0  0
    3.0510   -1.9631    0.0000 C   0  0  0  0  0  0  0  0  0  0  0  0
   -1.9503    2.5744    0.0000 C   0  0  0  0  0  0  0  0  0  0  0  0
    3.7655   -0.7256    0.0000 C   0  0  0  0  0  0  0  0  0  0  0  0
  1  5  2  0
  1  7  1  0
  2  6  1  0
  2  7  2  0
  3  5  1  0
  3 11  1  0
  4  5  1  0
  4  6  2  0
  4  9  1  0
  6 10  1  0
  7  8  1  0
  8 14  2  0
  8 15  1  0
  9 12  2  0
 10 13  2  0
 11 16  2  0
 11 17  1  0
 12 13  1  0
 14 19  1  0
 15 20  2  0
 16 18  1  0
 17 21  2  0
 18 22  2  0
 18 24  1  0
 19 23  2  0
 20 23  1  0
 21 22  1  0
M  END
>  <Curated_InChIs>  (141) 
InChI=1S/C21H17N3/c1-15-8-7-11-17(14-15)22-21-18-12-5-6-13-19(18)23-20(24-21)16-9-3-2-4-10-16/h2-14H,1H3,(H,22,23,24)

>  <threshold>  (141) 
5

>  <pchembl>  (141) 
5.94

>  <Classification>  (141) 
1

>  <source>  (141) 
chembl_28

>  <SMILES>  (141) 
Cc1cccc(Nc2nc(-c3ccccc3)nc3ccccc23)c1

>  <InChIKey>  (141) 
UMWJNQQMJJGINS-UHFFFAOYSA-N

$$$$

     RDKit          2D

 31 35  0  0  0  0  0  0  0  0999 V2000
   11.7282   -3.6608    0.0000 C   0  0  0  0  0  0  0  0  0  0  0  0
   11.7270   -4.4803    0.0000 C   0  0  0  0  0  0  0  0  0  0  0  0
   12.4351   -4.8893    0.0000 C   0  0  0  0  0  0  0  0  0  0  0  0
   12.4333   -3.2520    0.0000 C   0  0  0  0  0  0  0  0  0  0  0  0
   13.1419   -3.6572    0.0000 C   0  0  0  0  0  0  0  0  0  0  0  0
   13.1422   -4.4804    0.0000 C   0  0  0  0  0  0  0  0  0  0  0  0
   13.9251   -4.7346    0.0000 N   0  0  0  0  0  0  0  0  0  0  0  0
   13.9247   -3.4027    0.0000 C   0  0  0  0  0  0  0  0  0  0  0  0
   14.4089   -4.0698    0.0000 C   0  0  0  0  0  0  0  0  0  0  0  0
   15.2242   -3.9845    0.0000 C   0  0  0  0  0  0  0  0  0  0  0  0
   15.5617   -3.2331    0.0000 N   0  0  0  0  0  0  0  0  0  0  0  0
   15.0775   -2.5660    0.0000 C   0  0  0  0  0  0  0  0  0  0  0  0
   14.2558   -2.6503    0.0000 C   0  0  0  0  0  0  0  0  0  0  0  0
   16.3745   -3.1492    0.0000 C   0  0  0  0  0  0  0  0  0  0  0  0
   16.8536   -3.8112    0.0000 O   0  0  0  0  0  0  0  0  0  0  0  0
   16.7083   -2.4033    0.0000 C   0  0  0  0  0  0  0  0  0  0  0  0
   17.5214   -2.3234    0.0000 C   0  0  0  0  0  0  0  0  0  0  0  0
   17.8552   -1.5784    0.0000 C   0  0  0  0  0  0  0  0  0  0  0  0
   17.3760   -0.9154    0.0000 C   0  0  0  0  0  0  0  0  0  0  0  0
   16.5592   -1.0023    0.0000 C   0  0  0  0  0  0  0  0  0  0  0  0
   16.2291   -1.7476    0.0000 C   0  0  0  0  0  0  0  0  0  0  0  0
   15.7041   -4.6432    0.0000 C   0  0  0  0  0  0  0  0  0  0  0  0
   15.3687   -5.3895    0.0000 C   0  0  0  0  0  0  0  0  0  0  0  0
   15.8470   -6.0511    0.0000 C   0  0  0  0  0  0  0  0  0  0  0  0
   16.6608   -5.9676    0.0000 C   0  0  0  0  0  0  0  0  0  0  0  0
   16.9939   -5.2167    0.0000 C   0  0  0  0  0  0  0  0  0  0  0  0
   16.5135   -4.5583    0.0000 C   0  0  0  0  0  0  0  0  0  0  0  0
   17.8065   -5.1300    0.0000 O   0  0  0  0  0  0  0  0  0  0  0  0
   18.2879   -5.7903    0.0000 C   0  0  0  0  0  0  0  0  0  0  0  0
   17.1408   -6.6290    0.0000 O   0  0  0  0  0  0  0  0  0  0  0  0
   16.8080   -7.3753    0.0000 C   0  0  0  0  0  0  0  0  0  0  0  0
  1  2  2  0
  2  3  1  0
  3  6  2  0
  5  4  2  0
  4  1  1  0
  5  6  1  0
  6  7  1  0
  7  9  1  0
  8  5  1  0
  8  9  2  0
  8 13  1  0
  9 10  1  0
 10 11  1  0
 11 12  1  0
 12 13  1  0
 11 14  1  0
 14 15  2  0
 14 16  1  0
 16 17  2  0
 17 18  1  0
 18 19  2  0
 19 20  1  0
 20 21  2  0
 21 16  1  0
 22 23  2  0
 23 24  1  0
 24 25  2  0
 25 26  1  0
 26 27  2  0
 27 22  1  0
 10 22  1  0
 26 28  1  0
 28 29  1  0
 25 30  1  0
 30 31  1  0
M  END
>  <Curated_InChIs>  (142) 
InChI=1S/C26H24N2O3/c1-30-22-13-12-18(16-23(22)31-2)25-24-20(19-10-6-7-11-21(19)27-24)14-15-28(25)26(29)17-8-4-3-5-9-17/h3-13,16,25,27H,14-15H2,1-2H3

>  <threshold>  (142) 
5

>  <pchembl>  (142) 
5.44

>  <Classification>  (142) 
1

>  <source>  (142) 
chembl_28

>  <SMILES>  (142) 
COc1ccc(C2c3[nH]c4ccccc4c3CCN2C(=O)c2ccccc2)cc1OC

>  <InChIKey>  (142) 
URHAIHPRBSISPW-UHFFFAOYSA-N

$$$$

     RDKit          2D

 26 29  0  0  0  0  0  0  0  0999 V2000
    7.8372   -3.3793    0.0000 O   0  0  0  0  0  0  0  0  0  0  0  0
    8.5517   -2.1418    0.0000 O   0  0  0  0  0  0  0  0  0  0  0  0
    4.2648    0.3332    0.0000 N   0  0  0  0  0  0  0  0  0  0  0  0
    4.9793    1.5707    0.0000 N   0  0  0  0  0  0  0  0  0  0  0  0
    4.9793   -0.9043    0.0000 N   0  0  0  0  0  0  0  0  0  0  0  0
    5.6938    0.3332    0.0000 C   0  0  0  0  0  0  0  0  0  0  0  0
    4.9793   -0.0793    0.0000 C   0  0  0  0  0  0  0  0  0  0  0  0
    5.6938    1.1582    0.0000 C   0  0  0  0  0  0  0  0  0  0  0  0
    4.2648    1.1582    0.0000 C   0  0  0  0  0  0  0  0  0  0  0  0
    3.5504    1.5707    0.0000 C   0  0  0  0  0  0  0  0  0  0  0  0
    6.4083   -0.0793    0.0000 C   0  0  0  0  0  0  0  0  0  0  0  0
    5.6938   -1.3168    0.0000 C   0  0  0  0  0  0  0  0  0  0  0  0
    6.4083    1.5707    0.0000 C   0  0  0  0  0  0  0  0  0  0  0  0
    7.1227    0.3332    0.0000 C   0  0  0  0  0  0  0  0  0  0  0  0
    7.1227    1.1582    0.0000 C   0  0  0  0  0  0  0  0  0  0  0  0
    2.8359    1.1582    0.0000 C   0  0  0  0  0  0  0  0  0  0  0  0
    3.5504    2.3957    0.0000 C   0  0  0  0  0  0  0  0  0  0  0  0
    6.4083   -0.9043    0.0000 C   0  0  0  0  0  0  0  0  0  0  0  0
    5.6938   -2.1418    0.0000 C   0  0  0  0  0  0  0  0  0  0  0  0
    7.1227   -2.1418    0.0000 C   0  0  0  0  0  0  0  0  0  0  0  0
    7.1227   -1.3168    0.0000 C   0  0  0  0  0  0  0  0  0  0  0  0
    6.4083   -2.5543    0.0000 C   0  0  0  0  0  0  0  0  0  0  0  0
    2.1214    1.5707    0.0000 C   0  0  0  0  0  0  0  0  0  0  0  0
    2.8359    2.8082    0.0000 C   0  0  0  0  0  0  0  0  0  0  0  0
    7.8372   -2.5543    0.0000 C   0  0  0  0  0  0  0  0  0  0  0  0
    2.1214    2.3957    0.0000 C   0  0  0  0  0  0  0  0  0  0  0  0
  1 25  2  0
  2 25  1  0
  3  7  2  0
  3  9  1  0
  4  8  1  0
  4  9  2  0
  5  7  1  0
  5 12  1  0
  6  7  1  0
  6  8  2  0
  6 11  1  0
  8 13  1  0
  9 10  1  0
 10 16  2  0
 10 17  1  0
 11 14  2  0
 12 18  2  0
 12 19  1  0
 13 15  2  0
 14 15  1  0
 16 23  1  0
 17 24  2  0
 18 21  1  0
 19 22  2  0
 20 21  2  0
 20 22  1  0
 20 25  1  0
 23 26  2  0
 24 26  1  0
M  END
>  <Curated_InChIs>  (143) 
InChI=1S/C21H15N3O2/c25-21(26)15-10-12-16(13-11-15)22-20-17-8-4-5-9-18(17)23-19(24-20)14-6-2-1-3-7-14/h1-13H,(H,25,26)(H,22,23,24)

>  <threshold>  (143) 
5

>  <pchembl>  (143) 
5.2

>  <Classification>  (143) 
1

>  <source>  (143) 
chembl_28

>  <SMILES>  (143) 
O=C(O)c1ccc(Nc2nc(-c3ccccc3)nc3ccccc23)cc1

>  <InChIKey>  (143) 
URQSXBUBPRZCPZ-UHFFFAOYSA-N

$$$$

     RDKit          2D

 25 28  0  0  0  0  0  0  0  0999 V2000
   -3.5951   -2.0250    0.0000 O   0  0  0  0  0  0  0  0  0  0  0  0
   -1.4517    0.8625    0.0000 N   0  0  0  0  0  0  0  0  0  0  0  0
   -0.7372    2.1000    0.0000 N   0  0  0  0  0  0  0  0  0  0  0  0
   -0.7372   -0.3750    0.0000 N   0  0  0  0  0  0  0  0  0  0  0  0
   -3.5951    2.9250    0.0000 N   0  0  0  0  0  0  0  0  0  0  0  0
   -0.0228    0.8625    0.0000 C   0  0  0  0  0  0  0  0  0  0  0  0
   -0.7372    0.4500    0.0000 C   0  0  0  0  0  0  0  0  0  0  0  0
   -0.0228    1.6875    0.0000 C   0  0  0  0  0  0  0  0  0  0  0  0
   -1.4517    1.6875    0.0000 C   0  0  0  0  0  0  0  0  0  0  0  0
   -2.1662    2.1000    0.0000 C   0  0  0  0  0  0  0  0  0  0  0  0
    0.6917    0.4500    0.0000 C   0  0  0  0  0  0  0  0  0  0  0  0
    0.6917    2.1000    0.0000 C   0  0  0  0  0  0  0  0  0  0  0  0
   -1.4517   -0.7875    0.0000 C   0  0  0  0  0  0  0  0  0  0  0  0
    1.4062    0.8625    0.0000 C   0  0  0  0  0  0  0  0  0  0  0  0
    1.4062    1.6875    0.0000 C   0  0  0  0  0  0  0  0  0  0  0  0
   -2.1662    2.9250    0.0000 C   0  0  0  0  0  0  0  0  0  0  0  0
   -2.8807    1.6875    0.0000 C   0  0  0  0  0  0  0  0  0  0  0  0
   -1.4517   -1.6125    0.0000 C   0  0  0  0  0  0  0  0  0  0  0  0
   -2.1662   -0.3750    0.0000 C   0  0  0  0  0  0  0  0  0  0  0  0
   -2.8807   -1.6125    0.0000 C   0  0  0  0  0  0  0  0  0  0  0  0
   -2.1662   -2.0250    0.0000 C   0  0  0  0  0  0  0  0  0  0  0  0
   -2.8807   -0.7875    0.0000 C   0  0  0  0  0  0  0  0  0  0  0  0
   -2.8807    3.3375    0.0000 C   0  0  0  0  0  0  0  0  0  0  0  0
   -3.5951    2.1000    0.0000 C   0  0  0  0  0  0  0  0  0  0  0  0
   -3.5951   -2.8500    0.0000 C   0  0  0  0  0  0  0  0  0  0  0  0
  1 20  1  0
  1 25  1  0
  2  7  2  0
  2  9  1  0
  3  8  1  0
  3  9  2  0
  4  7  1  0
  4 13  1  0
  5 23  2  0
  5 24  1  0
  6  7  1  0
  6  8  2  0
  6 11  1  0
  8 12  1  0
  9 10  1  0
 10 16  2  0
 10 17  1  0
 11 14  2  0
 12 15  2  0
 13 18  2  0
 13 19  1  0
 14 15  1  0
 16 23  1  0
 17 24  2  0
 18 21  1  0
 19 22  2  0
 20 21  2  0
 20 22  1  0
M  END
>  <Curated_InChIs>  (144) 
InChI=1S/C20H16N4O/c1-25-16-8-6-15(7-9-16)22-20-17-4-2-3-5-18(17)23-19(24-20)14-10-12-21-13-11-14/h2-13H,1H3,(H,22,23,24)

>  <threshold>  (144) 
5

>  <pchembl>  (144) 
6.13

>  <Classification>  (144) 
1

>  <source>  (144) 
chembl_28

>  <SMILES>  (144) 
COc1ccc(Nc2nc(-c3ccncc3)nc3ccccc23)cc1

>  <InChIKey>  (144) 
UTHOAQNMUUCAAM-UHFFFAOYSA-N

$$$$

     RDKit          2D

 27 30  0  0  0  0  0  0  0  0999 V2000
   37.1767  -19.0182    0.0000 C   0  0  0  0  0  0  0  0  0  0  0  0
   37.1755  -19.8378    0.0000 C   0  0  0  0  0  0  0  0  0  0  0  0
   37.8836  -20.2467    0.0000 C   0  0  0  0  0  0  0  0  0  0  0  0
   37.8818  -18.6094    0.0000 C   0  0  0  0  0  0  0  0  0  0  0  0
   38.5904  -19.0146    0.0000 C   0  0  0  0  0  0  0  0  0  0  0  0
   38.5911  -19.8336    0.0000 C   0  0  0  0  0  0  0  0  0  0  0  0
   39.2997  -20.2407    0.0000 N   0  0  0  0  0  0  0  0  0  0  0  0
   40.0079  -19.8299    0.0000 C   0  0  0  0  0  0  0  0  0  0  0  0
   40.0032  -19.0078    0.0000 N   0  0  0  0  0  0  0  0  0  0  0  0
   39.2941  -18.6044    0.0000 C   0  0  0  0  0  0  0  0  0  0  0  0
   40.7214  -20.2329    0.0000 C   0  0  0  0  0  0  0  0  0  0  0  0
   39.2898  -17.7872    0.0000 O   0  0  0  0  0  0  0  0  0  0  0  0
   39.9953  -17.3749    0.0000 C   0  0  0  0  0  0  0  0  0  0  0  0
   40.7006  -17.7831    0.0000 C   0  0  0  0  0  0  0  0  0  0  0  0
   41.4056  -17.3714    0.0000 C   0  0  0  0  0  0  0  0  0  0  0  0
   41.4017  -16.5534    0.0000 C   0  0  0  0  0  0  0  0  0  0  0  0
   40.6869  -16.1487    0.0000 C   0  0  0  0  0  0  0  0  0  0  0  0
   39.9848  -16.5627    0.0000 C   0  0  0  0  0  0  0  0  0  0  0  0
   40.7242  -21.0521    0.0000 C   0  0  0  0  0  0  0  0  0  0  0  0
   41.4368  -21.4551    0.0000 C   0  0  0  0  0  0  0  0  0  0  0  0
   42.1435  -21.0387    0.0000 C   0  0  0  0  0  0  0  0  0  0  0  0
   42.1331  -20.2151    0.0000 C   0  0  0  0  0  0  0  0  0  0  0  0
   41.4200  -19.8159    0.0000 C   0  0  0  0  0  0  0  0  0  0  0  0
   42.1153  -17.7766    0.0000 C   0  0  0  0  0  0  0  0  0  0  0  0
   42.1192  -18.5938    0.0000 F   0  0  0  0  0  0  0  0  0  0  0  0
   42.8210  -17.3646    0.0000 F   0  0  0  0  0  0  0  0  0  0  0  0
   42.8200  -18.1846    0.0000 F   0  0  0  0  0  0  0  0  0  0  0  0
  1  2  2  0
  2  3  1  0
  3  6  2  0
  5  4  2  0
  4  1  1  0
  5  6  1  0
  6  7  1  0
  7  8  2  0
  8  9  1  0
  9 10  2  0
 10  5  1  0
  8 11  1  0
 10 12  1  0
 12 13  1  0
 13 14  2  0
 14 15  1  0
 15 16  2  0
 16 17  1  0
 17 18  2  0
 18 13  1  0
 11 19  2  0
 19 20  1  0
 20 21  2  0
 21 22  1  0
 22 23  2  0
 23 11  1  0
 15 24  1  0
 24 25  1  0
 24 26  1  0
 24 27  1  0
M  END
>  <Curated_InChIs>  (145) 
InChI=1S/C21H13F3N2O/c22-21(23,24)15-9-6-10-16(13-15)27-20-17-11-4-5-12-18(17)25-19(26-20)14-7-2-1-3-8-14/h1-13H

>  <threshold>  (145) 
5

>  <pchembl>  (145) 
6.0

>  <Classification>  (145) 
1

>  <source>  (145) 
chembl_28

>  <SMILES>  (145) 
FC(F)(F)c1cccc(Oc2nc(-c3ccccc3)nc3ccccc23)c1

>  <InChIKey>  (145) 
UURLHJCMTOHEFA-UHFFFAOYSA-N

$$$$

     RDKit          2D

 27 30  0  0  0  0  0  0  0  0999 V2000
   28.2784  -26.0799    0.0000 C   0  0  0  0  0  0  0  0  0  0  0  0
   28.2772  -26.8995    0.0000 C   0  0  0  0  0  0  0  0  0  0  0  0
   28.9853  -27.3084    0.0000 C   0  0  0  0  0  0  0  0  0  0  0  0
   28.9835  -25.6711    0.0000 C   0  0  0  0  0  0  0  0  0  0  0  0
   29.6921  -26.0763    0.0000 C   0  0  0  0  0  0  0  0  0  0  0  0
   29.6928  -26.8953    0.0000 C   0  0  0  0  0  0  0  0  0  0  0  0
   30.4014  -27.3024    0.0000 N   0  0  0  0  0  0  0  0  0  0  0  0
   31.1096  -26.8916    0.0000 C   0  0  0  0  0  0  0  0  0  0  0  0
   31.1049  -26.0695    0.0000 N   0  0  0  0  0  0  0  0  0  0  0  0
   30.3958  -25.6661    0.0000 C   0  0  0  0  0  0  0  0  0  0  0  0
   31.8231  -27.2946    0.0000 C   0  0  0  0  0  0  0  0  0  0  0  0
   30.3915  -24.8489    0.0000 N   0  0  0  0  0  0  0  0  0  0  0  0
   31.0970  -24.4366    0.0000 C   0  0  0  0  0  0  0  0  0  0  0  0
   31.8023  -24.8448    0.0000 C   0  0  0  0  0  0  0  0  0  0  0  0
   32.5073  -24.4331    0.0000 C   0  0  0  0  0  0  0  0  0  0  0  0
   32.5034  -23.6151    0.0000 C   0  0  0  0  0  0  0  0  0  0  0  0
   31.7886  -23.2104    0.0000 C   0  0  0  0  0  0  0  0  0  0  0  0
   31.0865  -23.6244    0.0000 C   0  0  0  0  0  0  0  0  0  0  0  0
   31.8259  -28.1138    0.0000 C   0  0  0  0  0  0  0  0  0  0  0  0
   32.5385  -28.5168    0.0000 C   0  0  0  0  0  0  0  0  0  0  0  0
   33.2452  -28.1003    0.0000 C   0  0  0  0  0  0  0  0  0  0  0  0
   33.2348  -27.2768    0.0000 C   0  0  0  0  0  0  0  0  0  0  0  0
   32.5217  -26.8776    0.0000 C   0  0  0  0  0  0  0  0  0  0  0  0
   29.6816  -24.4441    0.0000 C   0  0  0  0  0  0  0  0  0  0  0  0
   33.2184  -24.8383    0.0000 N   0  0  0  0  0  0  0  0  0  0  0  0
   33.9241  -24.4263    0.0000 O   0  0  0  0  0  0  0  0  0  0  0  0
   33.2223  -25.6555    0.0000 O   0  0  0  0  0  0  0  0  0  0  0  0
  1  2  2  0
  2  3  1  0
  3  6  2  0
  5  4  2  0
  4  1  1  0
  5  6  1  0
  6  7  1  0
  7  8  2  0
  8  9  1  0
  9 10  2  0
 10  5  1  0
  8 11  1  0
 10 12  1  0
 12 13  1  0
 13 14  2  0
 14 15  1  0
 15 16  2  0
 16 17  1  0
 17 18  2  0
 18 13  1  0
 11 19  2  0
 19 20  1  0
 20 21  2  0
 21 22  1  0
 22 23  2  0
 23 11  1  0
 12 24  1  0
 25 26  2  0
 25 27  1  0
 15 25  1  0
M  CHG  2  25   1  27  -1
M  END
>  <Curated_InChIs>  (146) 
InChI=1S/C21H16N4O2/c1-24(16-10-7-11-17(14-16)25(26)27)21-18-12-5-6-13-19(18)22-20(23-21)15-8-3-2-4-9-15/h2-14H,1H3

>  <threshold>  (146) 
5

>  <pchembl>  (146) 
5.69

>  <Classification>  (146) 
1

>  <source>  (146) 
chembl_28

>  <SMILES>  (146) 
CN(c1cccc([N+](=O)[O-])c1)c1nc(-c2ccccc2)nc2ccccc12

>  <InChIKey>  (146) 
UZONLOJYDPWYHO-UHFFFAOYSA-N

$$$$

     RDKit          2D

 86 96  0  0  0  0  0  0  0  0999 V2000
    5.5188  -11.6311    0.0000 C   0  0  0  0  0  0  0  0  0  0  0  0
    6.2309  -11.2197    0.0000 C   0  0  0  0  0  0  0  0  0  0  0  0
    6.9351  -11.6305    0.0000 C   0  0  0  0  0  0  0  0  0  0  0  0
    6.9351  -12.4500    0.0000 C   0  0  0  0  0  0  0  0  0  0  0  0
    6.2293  -12.8565    0.0000 C   0  0  0  0  0  0  0  0  0  0  0  0
    5.5188  -12.4511    0.0000 C   0  0  0  0  0  0  0  0  0  0  0  0
    7.6473  -12.8577    0.0000 O   0  0  0  0  0  0  0  0  0  0  0  0
    8.3554  -12.4500    0.0000 C   0  0  0  0  0  0  0  0  0  0  0  0
    8.3554  -11.6306    0.0000 C   0  0  0  0  0  0  0  0  0  0  0  0
    7.6473  -11.2188    0.0000 C   0  0  0  0  0  0  0  0  0  0  0  0
    7.6473  -10.4034    0.0000 O   0  0  0  0  0  0  0  0  0  0  0  0
    9.0634  -11.2188    0.0000 O   0  0  0  0  0  0  0  0  0  0  0  0
    9.7715  -11.6306    0.0000 C   0  0  0  0  0  0  0  0  0  0  0  0
   10.4796  -11.2188    0.0000 C   0  0  0  0  0  0  0  0  0  0  0  0
   10.4799  -10.4034    0.0000 C   0  0  0  0  0  0  0  0  0  0  0  0
   11.1896   -9.9943    0.0000 C   0  0  0  0  0  0  0  0  0  0  0  0
   11.8980  -10.4021    0.0000 C   0  0  0  0  0  0  0  0  0  0  0  0
   11.9002  -11.2199    0.0000 C   0  0  0  0  0  0  0  0  0  0  0  0
   11.1920  -11.6331    0.0000 C   0  0  0  0  0  0  0  0  0  0  0  0
   12.6083  -11.6276    0.0000 C   0  0  0  0  0  0  0  0  0  0  0  0
   13.3163  -11.2199    0.0000 O   0  0  0  0  0  0  0  0  0  0  0  0
   14.0244  -11.6276    0.0000 C   0  0  0  0  0  0  0  0  0  0  0  0
   12.6083  -12.4470    0.0000 O   0  0  0  0  0  0  0  0  0  0  0  0
    9.0634  -12.8577    0.0000 C   0  0  0  0  0  0  0  0  0  0  0  0
    9.7717  -12.4503    0.0000 C   0  0  0  0  0  0  0  0  0  0  0  0
   10.4803  -12.8571    0.0000 C   0  0  0  0  0  0  0  0  0  0  0  0
   10.4803  -13.6769    0.0000 C   0  0  0  0  0  0  0  0  0  0  0  0
    9.7743  -14.0836    0.0000 C   0  0  0  0  0  0  0  0  0  0  0  0
    9.0634  -13.6822    0.0000 C   0  0  0  0  0  0  0  0  0  0  0  0
   11.1884  -14.0846    0.0000 O   0  0  0  0  0  0  0  0  0  0  0  0
   11.8965  -13.6769    0.0000 C   0  0  0  0  0  0  0  0  0  0  0  0
   12.6087  -14.0846    0.0000 C   0  0  0  0  0  0  0  0  0  0  0  0
   13.3167  -13.6769    0.0000 O   0  0  0  0  0  0  0  0  0  0  0  0
   14.0248  -14.0846    0.0000 C   0  0  0  0  0  0  0  0  0  0  0  0
   14.7329  -13.6769    0.0000 C   0  0  0  0  0  0  0  0  0  0  0  0
   15.4410  -14.0846    0.0000 N   0  0  0  0  0  0  0  0  0  0  0  0
   16.1876  -13.7533    0.0000 C   0  0  0  0  0  0  0  0  0  0  0  0
   16.7392  -14.3625    0.0000 C   0  0  0  0  0  0  0  0  0  0  0  0
   16.3277  -15.0701    0.0000 N   0  0  0  0  0  0  0  0  0  0  0  0
   15.5302  -14.9012    0.0000 N   0  0  0  0  0  0  0  0  0  0  0  0
   17.5545  -14.3625    0.0000 C   0  0  0  0  0  0  0  0  0  0  0  0
   17.9666  -13.6546    0.0000 C   0  0  0  0  0  0  0  0  0  0  0  0
   18.7826  -13.6557    0.0000 C   0  0  0  0  0  0  0  0  0  0  0  0
   19.1904  -14.3640    0.0000 C   0  0  0  0  0  0  0  0  0  0  0  0
   18.7835  -15.0682    0.0000 C   0  0  0  0  0  0  0  0  0  0  0  0
   17.9688  -15.0750    0.0000 C   0  0  0  0  0  0  0  0  0  0  0  0
   19.1902  -12.9435    0.0000 C   0  0  0  0  0  0  0  0  0  0  0  0
   18.8589  -12.1969    0.0000 N   0  0  0  0  0  0  0  0  0  0  0  0
   19.4682  -11.6493    0.0000 N   0  0  0  0  0  0  0  0  0  0  0  0
   20.1758  -12.0567    0.0000 N   0  0  0  0  0  0  0  0  0  0  0  0
   20.0068  -12.8584    0.0000 C   0  0  0  0  0  0  0  0  0  0  0  0
   20.8838  -11.6491    0.0000 C   0  0  0  0  0  0  0  0  0  0  0  0
   21.5960  -12.0567    0.0000 C   0  0  0  0  0  0  0  0  0  0  0  0
   22.3041  -11.6491    0.0000 O   0  0  0  0  0  0  0  0  0  0  0  0
   23.0122  -12.0567    0.0000 C   0  0  0  0  0  0  0  0  0  0  0  0
   23.7203  -11.6491    0.0000 C   0  0  0  0  0  0  0  0  0  0  0  0
   24.4324  -12.0567    0.0000 O   0  0  0  0  0  0  0  0  0  0  0  0
   25.1405  -11.6491    0.0000 C   0  0  0  0  0  0  0  0  0  0  0  0
   25.1409  -10.8295    0.0000 C   0  0  0  0  0  0  0  0  0  0  0  0
   25.8464  -10.4246    0.0000 C   0  0  0  0  0  0  0  0  0  0  0  0
   26.5548  -10.8324    0.0000 C   0  0  0  0  0  0  0  0  0  0  0  0
   26.5570  -11.6461    0.0000 C   0  0  0  0  0  0  0  0  0  0  0  0
   25.8529  -12.0592    0.0000 C   0  0  0  0  0  0  0  0  0  0  0  0
   27.2670  -10.4247    0.0000 C   0  0  0  0  0  0  0  0  0  0  0  0
   27.2670   -9.6053    0.0000 C   0  0  0  0  0  0  0  0  0  0  0  0
   27.9750   -9.1935    0.0000 C   0  0  0  0  0  0  0  0  0  0  0  0
   28.6831   -9.6053    0.0000 C   0  0  0  0  0  0  0  0  0  0  0  0
   28.6831  -10.4248    0.0000 C   0  0  0  0  0  0  0  0  0  0  0  0
   27.9750  -10.8324    0.0000 O   0  0  0  0  0  0  0  0  0  0  0  0
   29.3956  -10.8346    0.0000 C   0  0  0  0  0  0  0  0  0  0  0  0
   30.1036  -10.4211    0.0000 C   0  0  0  0  0  0  0  0  0  0  0  0
   30.1010   -9.6076    0.0000 C   0  0  0  0  0  0  0  0  0  0  0  0
   29.3925   -9.1960    0.0000 C   0  0  0  0  0  0  0  0  0  0  0  0
   27.9750   -8.3782    0.0000 O   0  0  0  0  0  0  0  0  0  0  0  0
   26.5548   -9.1935    0.0000 O   0  0  0  0  0  0  0  0  0  0  0  0
   25.8467   -9.6053    0.0000 C   0  0  0  0  0  0  0  0  0  0  0  0
   25.1386   -9.1935    0.0000 C   0  0  0  0  0  0  0  0  0  0  0  0
   24.4303   -9.6051    0.0000 C   0  0  0  0  0  0  0  0  0  0  0  0
   23.7217   -9.1941    0.0000 C   0  0  0  0  0  0  0  0  0  0  0  0
   23.7217   -8.3743    0.0000 C   0  0  0  0  0  0  0  0  0  0  0  0
   24.4278   -7.9676    0.0000 C   0  0  0  0  0  0  0  0  0  0  0  0
   25.1386   -8.3732    0.0000 C   0  0  0  0  0  0  0  0  0  0  0  0
   23.0137   -9.6059    0.0000 C   0  0  0  0  0  0  0  0  0  0  0  0
   23.0137  -10.4253    0.0000 O   0  0  0  0  0  0  0  0  0  0  0  0
   22.3056   -9.1941    0.0000 O   0  0  0  0  0  0  0  0  0  0  0  0
   21.5975   -9.6059    0.0000 C   0  0  0  0  0  0  0  0  0  0  0  0
  2  1  2  0
  3  2  1  0
  4  3  2  0
  5  4  1  0
  6  5  2  0
  1  6  1  0
  4  7  1  0
  7  8  1  0
  8  9  2  0
  9 10  1  0
  3 10  1  0
 10 11  2  0
  9 12  1  0
 12 13  1  0
 13 14  1  0
 15 14  2  0
 16 15  1  0
 17 16  2  0
 18 17  1  0
 19 18  2  0
 14 19  1  0
 18 20  1  0
 20 21  1  0
 21 22  1  0
 20 23  2  0
 24  8  1  0
 25 24  2  0
 26 25  1  0
 27 26  2  0
 28 27  1  0
 29 28  2  0
 24 29  1  0
 27 30  1  0
 30 31  1  0
 31 32  1  0
 32 33  1  0
 33 34  1  0
 34 35  1  0
 35 36  1  0
 37 36  1  0
 37 38  2  0
 38 39  1  0
 39 40  2  0
 40 36  1  0
 38 41  1  0
 42 41  2  0
 43 42  1  0
 44 43  2  0
 45 44  1  0
 46 45  2  0
 41 46  1  0
 47 43  1  0
 47 48  1  0
 48 49  2  0
 49 50  1  0
 50 51  1  0
 51 47  2  0
 50 52  1  0
 52 53  1  0
 53 54  1  0
 54 55  1  0
 55 56  1  0
 56 57  1  0
 57 58  1  0
 59 58  2  0
 60 59  1  0
 61 60  2  0
 62 61  1  0
 63 62  2  0
 58 63  1  0
 64 61  1  0
 64 65  2  0
 66 65  1  0
 67 66  1  0
 68 67  2  0
 69 68  1  0
 64 69  1  0
 68 70  1  0
 70 71  2  0
 71 72  1  0
 72 73  2  0
 67 73  1  0
 66 74  2  0
 65 75  1  0
 75 76  1  0
 76 77  1  0
 78 77  2  0
 79 78  1  0
 80 79  2  0
 81 80  1  0
 82 81  2  0
 77 82  1  0
 79 83  1  0
 83 84  2  0
 83 85  1  0
 85 86  1  0
M  END
>  <Curated_InChIs>  (147) 
InChI=1S/C66H56N6O14/c1-77-65(75)49-14-7-10-43(36-49)41-83-63-59(73)53-16-3-5-18-57(53)85-61(63)45-20-24-51(25-21-45)81-34-32-79-30-28-71-39-55(67-69-71)47-12-9-13-48(38-47)56-40-72(70-68-56)29-31-80-33-35-82-52-26-22-46(23-27-52)62-64(60(74)54-17-4-6-19-58(54)86-62)84-42-44-11-8-15-50(37-44)66(76)78-2/h3-27,36-40H,28-35,41-42H2,1-2H3

>  <threshold>  (147) 
5

>  <pchembl>  (147) 
7.61

>  <Classification>  (147) 
1

>  <source>  (147) 
chembl_28

>  <SMILES>  (147) 
COC(=O)c1cccc(COc2c(-c3ccc(OCCOCCn4cc(-c5cccc(-c6cn(CCOCCOc7ccc(-c8oc9ccccc9c(=O)c8OCc8cccc(C(=O)OC)c8)cc7)nn6)c5)nn4)cc3)oc3ccccc3c2=O)c1

>  <InChIKey>  (147) 
VCMDBWMGCBGSNR-UHFFFAOYSA-N

$$$$

     RDKit          2D

 30 34  0  0  0  0  0  0  0  0999 V2000
   12.0666   -4.3212    0.0000 C   0  0  0  0  0  0  0  0  0  0  0  0
   12.0655   -5.1407    0.0000 C   0  0  0  0  0  0  0  0  0  0  0  0
   12.7735   -5.5497    0.0000 C   0  0  0  0  0  0  0  0  0  0  0  0
   12.7717   -3.9123    0.0000 C   0  0  0  0  0  0  0  0  0  0  0  0
   13.4803   -4.3176    0.0000 C   0  0  0  0  0  0  0  0  0  0  0  0
   13.4806   -5.1407    0.0000 C   0  0  0  0  0  0  0  0  0  0  0  0
   14.2636   -5.3949    0.0000 N   0  0  0  0  0  0  0  0  0  0  0  0
   14.2631   -4.0630    0.0000 C   0  0  0  0  0  0  0  0  0  0  0  0
   14.7473   -4.7301    0.0000 C   0  0  0  0  0  0  0  0  0  0  0  0
   15.5626   -4.6448    0.0000 C   0  0  0  0  0  0  0  0  0  0  0  0
   15.9001   -3.8935    0.0000 N   0  0  0  0  0  0  0  0  0  0  0  0
   15.4159   -3.2264    0.0000 C   0  0  0  0  0  0  0  0  0  0  0  0
   14.5943   -3.3106    0.0000 C   0  0  0  0  0  0  0  0  0  0  0  0
   16.7130   -3.8096    0.0000 C   0  0  0  0  0  0  0  0  0  0  0  0
   17.1921   -4.4716    0.0000 O   0  0  0  0  0  0  0  0  0  0  0  0
   17.0468   -3.0636    0.0000 C   0  0  0  0  0  0  0  0  0  0  0  0
   17.8599   -2.9838    0.0000 C   0  0  0  0  0  0  0  0  0  0  0  0
   18.1937   -2.2387    0.0000 C   0  0  0  0  0  0  0  0  0  0  0  0
   17.7144   -1.5757    0.0000 C   0  0  0  0  0  0  0  0  0  0  0  0
   16.8976   -1.6627    0.0000 C   0  0  0  0  0  0  0  0  0  0  0  0
   16.5675   -2.4079    0.0000 C   0  0  0  0  0  0  0  0  0  0  0  0
   16.0426   -5.3035    0.0000 C   0  0  0  0  0  0  0  0  0  0  0  0
   15.7071   -6.0499    0.0000 C   0  0  0  0  0  0  0  0  0  0  0  0
   16.1855   -6.7115    0.0000 C   0  0  0  0  0  0  0  0  0  0  0  0
   16.9993   -6.6280    0.0000 C   0  0  0  0  0  0  0  0  0  0  0  0
   17.3324   -5.8771    0.0000 C   0  0  0  0  0  0  0  0  0  0  0  0
   16.8520   -5.2186    0.0000 C   0  0  0  0  0  0  0  0  0  0  0  0
   18.0472   -0.8294    0.0000 O   0  0  0  0  0  0  0  0  0  0  0  0
   18.8600   -0.7444    0.0000 C   0  0  0  0  0  0  0  0  0  0  0  0
   15.8513   -7.4573    0.0000 Cl  0  0  0  0  0  0  0  0  0  0  0  0
  1  2  2  0
  2  3  1  0
  3  6  2  0
  5  4  2  0
  4  1  1  0
  5  6  1  0
  6  7  1  0
  7  9  1  0
  8  5  1  0
  8  9  2  0
  8 13  1  0
  9 10  1  0
 10 11  1  0
 11 12  1  0
 12 13  1  0
 11 14  1  0
 14 15  2  0
 14 16  1  0
 16 17  2  0
 17 18  1  0
 18 19  2  0
 19 20  1  0
 20 21  2  0
 21 16  1  0
 22 23  2  0
 23 24  1  0
 24 25  2  0
 25 26  1  0
 26 27  2  0
 27 22  1  0
 10 22  1  0
 19 28  1  0
 28 29  1  0
 24 30  1  0
M  END
>  <Curated_InChIs>  (148) 
InChI=1S/C25H21ClN2O2/c1-30-19-11-9-16(10-12-19)25(29)28-14-13-21-20-7-2-3-8-22(20)27-23(21)24(28)17-5-4-6-18(26)15-17/h2-12,15,24,27H,13-14H2,1H3

>  <threshold>  (148) 
5

>  <pchembl>  (148) 
6.05

>  <Classification>  (148) 
1

>  <source>  (148) 
chembl_28

>  <SMILES>  (148) 
COc1ccc(C(=O)N2CCc3c([nH]c4ccccc34)C2c2cccc(Cl)c2)cc1

>  <InChIKey>  (148) 
VTHHNXQVCOMVAW-UHFFFAOYSA-N

$$$$

     RDKit          2D

 29 33  0  0  0  0  0  0  0  0999 V2000
   21.7573   -4.0900    0.0000 C   0  0  0  0  0  0  0  0  0  0  0  0
   21.7562   -4.9096    0.0000 C   0  0  0  0  0  0  0  0  0  0  0  0
   22.4642   -5.3185    0.0000 C   0  0  0  0  0  0  0  0  0  0  0  0
   22.4624   -3.6812    0.0000 C   0  0  0  0  0  0  0  0  0  0  0  0
   23.1711   -4.0864    0.0000 C   0  0  0  0  0  0  0  0  0  0  0  0
   23.1713   -4.9096    0.0000 C   0  0  0  0  0  0  0  0  0  0  0  0
   23.9543   -5.1638    0.0000 N   0  0  0  0  0  0  0  0  0  0  0  0
   23.9539   -3.8319    0.0000 C   0  0  0  0  0  0  0  0  0  0  0  0
   24.4381   -4.4990    0.0000 C   0  0  0  0  0  0  0  0  0  0  0  0
   25.2534   -4.4137    0.0000 C   0  0  0  0  0  0  0  0  0  0  0  0
   25.5908   -3.6623    0.0000 N   0  0  0  0  0  0  0  0  0  0  0  0
   25.1066   -2.9952    0.0000 C   0  0  0  0  0  0  0  0  0  0  0  0
   24.2850   -3.0795    0.0000 C   0  0  0  0  0  0  0  0  0  0  0  0
   26.4037   -3.5784    0.0000 C   0  0  0  0  0  0  0  0  0  0  0  0
   26.8828   -4.2405    0.0000 O   0  0  0  0  0  0  0  0  0  0  0  0
   26.7375   -2.8325    0.0000 C   0  0  0  0  0  0  0  0  0  0  0  0
   27.5506   -2.7527    0.0000 C   0  0  0  0  0  0  0  0  0  0  0  0
   27.8844   -2.0076    0.0000 C   0  0  0  0  0  0  0  0  0  0  0  0
   27.4051   -1.3446    0.0000 C   0  0  0  0  0  0  0  0  0  0  0  0
   26.5883   -1.4315    0.0000 C   0  0  0  0  0  0  0  0  0  0  0  0
   26.2583   -2.1768    0.0000 C   0  0  0  0  0  0  0  0  0  0  0  0
   25.7333   -5.0724    0.0000 C   0  0  0  0  0  0  0  0  0  0  0  0
   25.3978   -5.8188    0.0000 C   0  0  0  0  0  0  0  0  0  0  0  0
   25.8762   -6.4804    0.0000 C   0  0  0  0  0  0  0  0  0  0  0  0
   26.6900   -6.3968    0.0000 C   0  0  0  0  0  0  0  0  0  0  0  0
   27.0231   -5.6460    0.0000 C   0  0  0  0  0  0  0  0  0  0  0  0
   26.5427   -4.9875    0.0000 C   0  0  0  0  0  0  0  0  0  0  0  0
   27.7379   -0.5982    0.0000 Cl  0  0  0  0  0  0  0  0  0  0  0  0
   27.1700   -7.0582    0.0000 Br  0  0  0  0  0  0  0  0  0  0  0  0
  1  2  2  0
  2  3  1  0
  3  6  2  0
  5  4  2  0
  4  1  1  0
  5  6  1  0
  6  7  1  0
  7  9  1  0
  8  5  1  0
  8  9  2  0
  8 13  1  0
  9 10  1  0
 10 11  1  0
 11 12  1  0
 12 13  1  0
 11 14  1  0
 14 15  2  0
 14 16  1  0
 16 17  2  0
 17 18  1  0
 18 19  2  0
 19 20  1  0
 20 21  2  0
 21 16  1  0
 22 23  2  0
 23 24  1  0
 24 25  2  0
 25 26  1  0
 26 27  2  0
 27 22  1  0
 10 22  1  0
 19 28  1  0
 25 29  1  0
M  END
>  <Curated_InChIs>  (149) 
InChI=1S/C24H18BrClN2O/c25-17-9-5-15(6-10-17)23-22-20(19-3-1-2-4-21(19)27-22)13-14-28(23)24(29)16-7-11-18(26)12-8-16/h1-12,23,27H,13-14H2

>  <threshold>  (149) 
5

>  <pchembl>  (149) 
5.75

>  <Classification>  (149) 
1

>  <source>  (149) 
chembl_28

>  <SMILES>  (149) 
O=C(c1ccc(Cl)cc1)N1CCc2c([nH]c3ccccc23)C1c1ccc(Br)cc1

>  <InChIKey>  (149) 
VYDLZLHCQFQQKH-UHFFFAOYSA-N

$$$$

     RDKit          2D

 25 28  0  0  0  0  0  0  0  0999 V2000
    2.1984   -4.7628    0.0000 C   0  0  0  0  0  0  0  0  0  0  0  0
    2.1973   -5.5823    0.0000 C   0  0  0  0  0  0  0  0  0  0  0  0
    2.9053   -5.9913    0.0000 C   0  0  0  0  0  0  0  0  0  0  0  0
    2.9035   -4.3539    0.0000 C   0  0  0  0  0  0  0  0  0  0  0  0
    3.6121   -4.7592    0.0000 C   0  0  0  0  0  0  0  0  0  0  0  0
    3.6129   -5.5782    0.0000 C   0  0  0  0  0  0  0  0  0  0  0  0
    4.3214   -5.9853    0.0000 N   0  0  0  0  0  0  0  0  0  0  0  0
    5.0297   -5.5744    0.0000 C   0  0  0  0  0  0  0  0  0  0  0  0
    5.0249   -4.7523    0.0000 N   0  0  0  0  0  0  0  0  0  0  0  0
    4.3158   -4.3490    0.0000 C   0  0  0  0  0  0  0  0  0  0  0  0
    5.7431   -5.9774    0.0000 C   0  0  0  0  0  0  0  0  0  0  0  0
    5.8317   -6.7898    0.0000 C   0  0  0  0  0  0  0  0  0  0  0  0
    6.6317   -6.9566    0.0000 C   0  0  0  0  0  0  0  0  0  0  0  0
    7.0376   -6.2473    0.0000 C   0  0  0  0  0  0  0  0  0  0  0  0
    6.4884   -5.6422    0.0000 S   0  0  0  0  0  0  0  0  0  0  0  0
    4.3115   -3.5318    0.0000 N   0  0  0  0  0  0  0  0  0  0  0  0
    5.0170   -3.1194    0.0000 C   0  0  0  0  0  0  0  0  0  0  0  0
    5.7223   -3.5276    0.0000 C   0  0  0  0  0  0  0  0  0  0  0  0
    6.4274   -3.1160    0.0000 C   0  0  0  0  0  0  0  0  0  0  0  0
    6.4235   -2.2979    0.0000 C   0  0  0  0  0  0  0  0  0  0  0  0
    5.7086   -1.8933    0.0000 C   0  0  0  0  0  0  0  0  0  0  0  0
    5.0065   -2.3073    0.0000 C   0  0  0  0  0  0  0  0  0  0  0  0
    7.1384   -3.5212    0.0000 N   0  0  0  0  0  0  0  0  0  0  0  0
    7.8442   -3.1092    0.0000 O   0  0  0  0  0  0  0  0  0  0  0  0
    7.1424   -4.3384    0.0000 O   0  0  0  0  0  0  0  0  0  0  0  0
  1  2  2  0
  2  3  1  0
  3  6  2  0
  5  4  2  0
  4  1  1  0
  5  6  1  0
  6  7  1  0
  7  8  2  0
  8  9  1  0
  9 10  2  0
 10  5  1  0
 11 12  2  0
 12 13  1  0
 13 14  2  0
 14 15  1  0
 15 11  1  0
  8 11  1  0
 10 16  1  0
 16 17  1  0
 17 18  2  0
 18 19  1  0
 19 20  2  0
 20 21  1  0
 21 22  2  0
 22 17  1  0
 23 24  2  0
 23 25  1  0
 19 23  1  0
M  CHG  2  23   1  25  -1
M  END
>  <Curated_InChIs>  (150) 
InChI=1S/C18H12N4O2S/c23-22(24)13-6-3-5-12(11-13)19-17-14-7-1-2-8-15(14)20-18(21-17)16-9-4-10-25-16/h1-11H,(H,19,20,21)

>  <threshold>  (150) 
5

>  <pchembl>  (150) 
6.52

>  <Classification>  (150) 
1

>  <source>  (150) 
chembl_28

>  <SMILES>  (150) 
O=[N+]([O-])c1cccc(Nc2nc(-c3cccs3)nc3ccccc23)c1

>  <InChIKey>  (150) 
VZXDRFNXDKSMPC-UHFFFAOYSA-N

$$$$

     RDKit          2D

 21 22  0  0  0  0  0  0  0  0999 V2000
    2.2149   -7.9985    0.0000 C   0  0  0  0  0  0  0  0  0  0  0  0
    2.2138   -8.8181    0.0000 C   0  0  0  0  0  0  0  0  0  0  0  0
    2.9218   -9.2270    0.0000 C   0  0  0  0  0  0  0  0  0  0  0  0
    3.6315   -8.8176    0.0000 C   0  0  0  0  0  0  0  0  0  0  0  0
    3.6286   -7.9949    0.0000 C   0  0  0  0  0  0  0  0  0  0  0  0
    2.9200   -7.5897    0.0000 C   0  0  0  0  0  0  0  0  0  0  0  0
    4.3348   -7.5837    0.0000 C   0  0  0  0  0  0  0  0  0  0  0  0
    5.0440   -7.9896    0.0000 C   0  0  0  0  0  0  0  0  0  0  0  0
    4.3317   -6.7665    0.0000 O   0  0  0  0  0  0  0  0  0  0  0  0
    5.7502   -7.5783    0.0000 C   0  0  0  0  0  0  0  0  0  0  0  0
    6.4594   -7.9843    0.0000 C   0  0  0  0  0  0  0  0  0  0  0  0
    6.4594   -8.8003    0.0000 C   0  0  0  0  0  0  0  0  0  0  0  0
    7.1678   -9.2062    0.0000 C   0  0  0  0  0  0  0  0  0  0  0  0
    7.8750   -8.7949    0.0000 C   0  0  0  0  0  0  0  0  0  0  0  0
    7.8693   -7.9735    0.0000 C   0  0  0  0  0  0  0  0  0  0  0  0
    7.1603   -7.5713    0.0000 C   0  0  0  0  0  0  0  0  0  0  0  0
    1.5057   -9.2261    0.0000 O   0  0  0  0  0  0  0  0  0  0  0  0
    8.5848   -9.1998    0.0000 O   0  0  0  0  0  0  0  0  0  0  0  0
    8.5889  -10.0170    0.0000 C   0  0  0  0  0  0  0  0  0  0  0  0
    9.2987  -10.4220    0.0000 C   0  0  0  0  0  0  0  0  0  0  0  0
    9.3029  -11.2392    0.0000 C   0  0  0  0  0  0  0  0  0  0  0  0
  1  2  2  0
  2  3  1  0
  3  4  2  0
  4  5  1  0
  5  6  2  0
  6  1  1  0
  5  7  1  0
  7  8  1  0
  7  9  2  0
  8 10  2  0
 10 11  1  0
 11 12  2  0
 12 13  1  0
 13 14  2  0
 14 15  1  0
 15 16  2  0
 16 11  1  0
  2 17  1  0
 14 18  1  0
 18 19  1  0
 19 20  1  0
 20 21  1  0
M  END
>  <Curated_InChIs>  (151) 
InChI=1S/C18H18O3/c1-2-13-21-17-10-3-14(4-11-17)5-12-18(20)15-6-8-16(19)9-7-15/h3-12,19H,2,13H2,1H3

>  <threshold>  (151) 
5

>  <pchembl>  (151) 
5.32

>  <Classification>  (151) 
1

>  <source>  (151) 
chembl_28

>  <SMILES>  (151) 
CCCOc1ccc(/C=C/C(=O)c2ccc(O)cc2)cc1

>  <InChIKey>  (151) 
WBRXKXFSWKFCAM-LFYBBSHMSA-N

$$$$

     RDKit          2D

 23 26  0  0  0  0  0  0  0  0999 V2000
    1.7073  -25.8116    0.0000 C   0  0  0  0  0  0  0  0  0  0  0  0
    1.7061  -26.6312    0.0000 C   0  0  0  0  0  0  0  0  0  0  0  0
    2.4142  -27.0402    0.0000 C   0  0  0  0  0  0  0  0  0  0  0  0
    2.4124  -25.4028    0.0000 C   0  0  0  0  0  0  0  0  0  0  0  0
    3.1210  -25.8081    0.0000 C   0  0  0  0  0  0  0  0  0  0  0  0
    3.1217  -26.6271    0.0000 C   0  0  0  0  0  0  0  0  0  0  0  0
    3.8303  -27.0341    0.0000 N   0  0  0  0  0  0  0  0  0  0  0  0
    4.5385  -26.6233    0.0000 C   0  0  0  0  0  0  0  0  0  0  0  0
    4.5338  -25.8012    0.0000 N   0  0  0  0  0  0  0  0  0  0  0  0
    3.8247  -25.3978    0.0000 C   0  0  0  0  0  0  0  0  0  0  0  0
    5.2520  -27.0263    0.0000 C   0  0  0  0  0  0  0  0  0  0  0  0
    3.8204  -24.5806    0.0000 S   0  0  0  0  0  0  0  0  0  0  0  0
    4.5259  -24.1683    0.0000 C   0  0  0  0  0  0  0  0  0  0  0  0
    5.2312  -24.5765    0.0000 C   0  0  0  0  0  0  0  0  0  0  0  0
    5.9362  -24.1649    0.0000 C   0  0  0  0  0  0  0  0  0  0  0  0
    5.9323  -23.3468    0.0000 C   0  0  0  0  0  0  0  0  0  0  0  0
    5.2175  -22.9422    0.0000 C   0  0  0  0  0  0  0  0  0  0  0  0
    4.5154  -23.3561    0.0000 C   0  0  0  0  0  0  0  0  0  0  0  0
    5.2548  -27.8456    0.0000 C   0  0  0  0  0  0  0  0  0  0  0  0
    5.9674  -28.2485    0.0000 C   0  0  0  0  0  0  0  0  0  0  0  0
    6.6741  -27.8321    0.0000 C   0  0  0  0  0  0  0  0  0  0  0  0
    6.6637  -27.0085    0.0000 C   0  0  0  0  0  0  0  0  0  0  0  0
    5.9506  -26.6093    0.0000 C   0  0  0  0  0  0  0  0  0  0  0  0
  1  2  2  0
  2  3  1  0
  3  6  2  0
  5  4  2  0
  4  1  1  0
  5  6  1  0
  6  7  1  0
  7  8  2  0
  8  9  1  0
  9 10  2  0
 10  5  1  0
  8 11  1  0
 10 12  1  0
 12 13  1  0
 13 14  2  0
 14 15  1  0
 15 16  2  0
 16 17  1  0
 17 18  2  0
 18 13  1  0
 11 19  2  0
 19 20  1  0
 20 21  2  0
 21 22  1  0
 22 23  2  0
 23 11  1  0
M  END
>  <Curated_InChIs>  (152) 
InChI=1S/C20H14N2S/c1-3-9-15(10-4-1)19-21-18-14-8-7-13-17(18)20(22-19)23-16-11-5-2-6-12-16/h1-14H

>  <threshold>  (152) 
5

>  <pchembl>  (152) 
5.0

>  <Classification>  (152) 
1

>  <source>  (152) 
chembl_28

>  <SMILES>  (152) 
c1ccc(Sc2nc(-c3ccccc3)nc3ccccc23)cc1

>  <InChIKey>  (152) 
WBTMDNNEEVHKGB-UHFFFAOYSA-N

$$$$

     RDKit          2D

 35 38  0  0  0  0  0  0  0  0999 V2000
   12.5750   -2.9667    0.0000 C   0  0  0  0  0  0  0  0  0  0  0  0
   12.5791   -3.7999    0.0000 C   0  0  0  0  0  0  0  0  0  0  0  0
   13.2916   -2.5542    0.0000 C   0  0  0  0  0  0  0  0  0  0  0  0
   14.0041   -2.9667    0.0000 C   0  0  0  0  0  0  0  0  0  0  0  0
   14.0041   -3.7999    0.0000 C   0  0  0  0  0  0  0  0  0  0  0  0
   13.2916   -4.2125    0.0000 C   0  0  0  0  0  0  0  0  0  0  0  0
   11.7791   -2.7167    0.0000 C   0  0  0  0  0  0  0  0  0  0  0  0
   11.2916   -3.3917    0.0000 O   0  0  0  0  0  0  0  0  0  0  0  0
   11.7917   -4.0542    0.0000 C   0  0  0  0  0  0  0  0  0  0  0  0
   11.5291   -1.9292    0.0000 O   0  0  0  0  0  0  0  0  0  0  0  0
   14.7188   -4.2120    0.0000 N   0  0  0  0  0  0  0  0  0  0  0  0
   15.4330   -3.7991    0.0000 C   0  0  0  0  0  0  0  0  0  0  0  0
   16.1478   -4.2112    0.0000 C   0  0  0  0  0  0  0  0  0  0  0  0
   15.4325   -2.9741    0.0000 O   0  0  0  0  0  0  0  0  0  0  0  0
   16.8619   -3.7982    0.0000 O   0  0  0  0  0  0  0  0  0  0  0  0
   17.5767   -4.2103    0.0000 C   0  0  0  0  0  0  0  0  0  0  0  0
   17.5726   -5.0344    0.0000 C   0  0  0  0  0  0  0  0  0  0  0  0
   18.2865   -5.4464    0.0000 C   0  0  0  0  0  0  0  0  0  0  0  0
   19.0017   -5.0334    0.0000 C   0  0  0  0  0  0  0  0  0  0  0  0
   18.9985   -4.2042    0.0000 C   0  0  0  0  0  0  0  0  0  0  0  0
   18.2841   -3.7959    0.0000 C   0  0  0  0  0  0  0  0  0  0  0  0
   19.7169   -5.4445    0.0000 C   0  0  0  0  0  0  0  0  0  0  0  0
   19.7186   -6.2695    0.0000 O   0  0  0  0  0  0  0  0  0  0  0  0
   20.4307   -5.0307    0.0000 C   0  0  0  0  0  0  0  0  0  0  0  0
   21.1460   -5.4418    0.0000 C   0  0  0  0  0  0  0  0  0  0  0  0
   21.8596   -5.0279    0.0000 C   0  0  0  0  0  0  0  0  0  0  0  0
   22.5712   -5.4417    0.0000 C   0  0  0  0  0  0  0  0  0  0  0  0
   23.2844   -5.0285    0.0000 C   0  0  0  0  0  0  0  0  0  0  0  0
   23.2833   -4.2027    0.0000 C   0  0  0  0  0  0  0  0  0  0  0  0
   22.5630   -3.7917    0.0000 C   0  0  0  0  0  0  0  0  0  0  0  0
   21.8527   -4.2072    0.0000 C   0  0  0  0  0  0  0  0  0  0  0  0
   23.9995   -5.4400    0.0000 O   0  0  0  0  0  0  0  0  0  0  0  0
   23.9963   -3.7878    0.0000 O   0  0  0  0  0  0  0  0  0  0  0  0
   24.7122   -4.1979    0.0000 C   0  0  0  0  0  0  0  0  0  0  0  0
   24.7133   -5.0265    0.0000 C   0  0  0  0  0  0  0  0  0  0  0  0
  2  1  1  0
  3  1  2  0
  4  3  1  0
  5  4  2  0
  6  2  2  0
  7  1  1  0
  8  7  1  0
  9  2  1  0
 10  7  2  0
  8  9  1  0
  6  5  1  0
  5 11  1  0
 11 12  1  0
 12 13  1  0
 12 14  2  0
 13 15  1  0
 15 16  1  0
 16 17  2  0
 17 18  1  0
 18 19  2  0
 19 20  1  0
 20 21  2  0
 21 16  1  0
 19 22  1  0
 22 23  2  0
 22 24  1  0
 24 25  2  0
 25 26  1  0
 26 27  2  0
 27 28  1  0
 28 29  2  0
 29 30  1  0
 30 31  2  0
 31 26  1  0
 28 32  1  0
 29 33  1  0
 33 34  1  0
 32 35  1  0
M  END
>  <Curated_InChIs>  (153) 
InChI=1S/C27H23NO7/c1-32-24-12-4-17(13-25(24)33-2)3-11-23(29)18-5-8-21(9-6-18)34-16-26(30)28-20-7-10-22-19(14-20)15-35-27(22)31/h3-14H,15-16H2,1-2H3,(H,28,30)

>  <threshold>  (153) 
5

>  <pchembl>  (153) 
5.18

>  <Classification>  (153) 
1

>  <source>  (153) 
chembl_28

>  <SMILES>  (153) 
COc1ccc(/C=C/C(=O)c2ccc(OCC(=O)Nc3ccc4c(c3)COC4=O)cc2)cc1OC

>  <InChIKey>  (153) 
WEWVPFRDDBNWDX-QDEBKDIKSA-N

$$$$

     RDKit          2D

 25 28  0  0  0  0  0  0  0  0999 V2000
   34.3041  -11.4035    0.0000 C   0  0  0  0  0  0  0  0  0  0  0  0
   34.3030  -12.2230    0.0000 C   0  0  0  0  0  0  0  0  0  0  0  0
   35.0110  -12.6320    0.0000 C   0  0  0  0  0  0  0  0  0  0  0  0
   35.0092  -10.9946    0.0000 C   0  0  0  0  0  0  0  0  0  0  0  0
   35.7178  -11.3999    0.0000 C   0  0  0  0  0  0  0  0  0  0  0  0
   35.7186  -12.2189    0.0000 C   0  0  0  0  0  0  0  0  0  0  0  0
   36.4271  -12.6260    0.0000 N   0  0  0  0  0  0  0  0  0  0  0  0
   37.1354  -12.2152    0.0000 C   0  0  0  0  0  0  0  0  0  0  0  0
   37.1307  -11.3930    0.0000 N   0  0  0  0  0  0  0  0  0  0  0  0
   36.4216  -10.9897    0.0000 C   0  0  0  0  0  0  0  0  0  0  0  0
   36.4172  -10.1725    0.0000 N   0  0  0  0  0  0  0  0  0  0  0  0
   37.1228   -9.7601    0.0000 C   0  0  0  0  0  0  0  0  0  0  0  0
   37.8280  -10.1684    0.0000 C   0  0  0  0  0  0  0  0  0  0  0  0
   38.5331   -9.7567    0.0000 C   0  0  0  0  0  0  0  0  0  0  0  0
   38.5292   -8.9386    0.0000 C   0  0  0  0  0  0  0  0  0  0  0  0
   37.8144   -8.5340    0.0000 C   0  0  0  0  0  0  0  0  0  0  0  0
   37.1122   -8.9480    0.0000 C   0  0  0  0  0  0  0  0  0  0  0  0
   37.8411  -12.6169    0.0000 C   0  0  0  0  0  0  0  0  0  0  0  0
   37.8430  -13.4352    0.0000 C   0  0  0  0  0  0  0  0  0  0  0  0
   38.5514  -13.8410    0.0000 C   0  0  0  0  0  0  0  0  0  0  0  0
   39.2585  -13.4296    0.0000 C   0  0  0  0  0  0  0  0  0  0  0  0
   39.2527  -12.6082    0.0000 C   0  0  0  0  0  0  0  0  0  0  0  0
   38.5437  -12.2061    0.0000 C   0  0  0  0  0  0  0  0  0  0  0  0
   39.2428  -10.1619    0.0000 C   0  0  0  0  0  0  0  0  0  0  0  0
   39.2342   -8.5254    0.0000 I   0  0  0  0  0  0  0  0  0  0  0  0
  1  2  2  0
  2  3  1  0
  3  6  2  0
  5  4  2  0
  4  1  1  0
  5  6  1  0
  6  7  1  0
  7  8  2  0
  8  9  1  0
  9 10  2  0
 10  5  1  0
 10 11  1  0
 11 12  1  0
 12 13  2  0
 13 14  1  0
 14 15  2  0
 15 16  1  0
 16 17  2  0
 17 12  1  0
 18 19  2  0
 19 20  1  0
 20 21  2  0
 21 22  1  0
 22 23  2  0
 23 18  1  0
  8 18  1  0
 14 24  1  0
 15 25  1  0
M  END
>  <Curated_InChIs>  (154) 
InChI=1S/C21H16IN3/c1-14-13-16(11-12-18(14)22)23-21-17-9-5-6-10-19(17)24-20(25-21)15-7-3-2-4-8-15/h2-13H,1H3,(H,23,24,25)

>  <threshold>  (154) 
5

>  <pchembl>  (154) 
5.84

>  <Classification>  (154) 
1

>  <source>  (154) 
chembl_28

>  <SMILES>  (154) 
Cc1cc(Nc2nc(-c3ccccc3)nc3ccccc23)ccc1I

>  <InChIKey>  (154) 
WHLCQCXSSXKYIJ-UHFFFAOYSA-N

$$$$

     RDKit          2D

 27 30  0  0  0  0  0  0  0  0999 V2000
   16.2959   -8.9037    0.0000 N   0  0  0  0  0  0  0  0  0  0  0  0
   16.9899   -8.4699    0.0000 C   0  0  0  0  0  0  0  0  0  0  0  0
   16.9626   -7.6520    0.0000 N   0  0  0  0  0  0  0  0  0  0  0  0
   16.2413   -7.2678    0.0000 C   0  0  0  0  0  0  0  0  0  0  0  0
   15.5473   -7.7016    0.0000 C   0  0  0  0  0  0  0  0  0  0  0  0
   14.8261   -7.3175    0.0000 C   0  0  0  0  0  0  0  0  0  0  0  0
   14.1321   -7.7513    0.0000 C   0  0  0  0  0  0  0  0  0  0  0  0
   14.1594   -8.5692    0.0000 C   0  0  0  0  0  0  0  0  0  0  0  0
   14.8807   -8.9533    0.0000 C   0  0  0  0  0  0  0  0  0  0  0  0
   15.5746   -8.5196    0.0000 C   0  0  0  0  0  0  0  0  0  0  0  0
   16.2121   -6.4535    0.0000 N   0  0  0  0  0  0  0  0  0  0  0  0
   16.9060   -6.0198    0.0000 C   0  0  0  0  0  0  0  0  0  0  0  0
   17.6273   -6.4039    0.0000 C   0  0  0  0  0  0  0  0  0  0  0  0
   18.3193   -5.9738    0.0000 C   0  0  0  0  0  0  0  0  0  0  0  0
   18.2920   -5.1558    0.0000 C   0  0  0  0  0  0  0  0  0  0  0  0
   17.5707   -4.7717    0.0000 C   0  0  0  0  0  0  0  0  0  0  0  0
   16.8768   -5.2055    0.0000 C   0  0  0  0  0  0  0  0  0  0  0  0
   17.7111   -8.8541    0.0000 C   0  0  0  0  0  0  0  0  0  0  0  0
   17.7384   -9.6720    0.0000 C   0  0  0  0  0  0  0  0  0  0  0  0
   18.4597  -10.0561    0.0000 C   0  0  0  0  0  0  0  0  0  0  0  0
   19.1537   -9.6224    0.0000 C   0  0  0  0  0  0  0  0  0  0  0  0
   19.1264   -8.8044    0.0000 C   0  0  0  0  0  0  0  0  0  0  0  0
   18.4051   -8.4203    0.0000 C   0  0  0  0  0  0  0  0  0  0  0  0
   19.8750  -10.0065    0.0000 O   0  0  0  0  0  0  0  0  0  0  0  0
   19.9023  -10.8244    0.0000 C   0  0  0  0  0  0  0  0  0  0  0  0
   18.4870  -10.8741    0.0000 O   0  0  0  0  0  0  0  0  0  0  0  0
   19.2083  -11.2582    0.0000 C   0  0  0  0  0  0  0  0  0  0  0  0
  1  2  2  0
  2  3  1  0
  3  4  2  0
  4  5  1  0
  5  6  2  0
  6  7  1  0
  7  8  2  0
  8  9  1  0
  9 10  2  0
  1 10  1  0
  5 10  1  0
  4 11  1  0
 12 13  2  0
 13 14  1  0
 14 15  2  0
 15 16  1  0
 16 17  2  0
 12 17  1  0
 11 12  1  0
 18 19  2  0
 19 20  1  0
 20 21  2  0
 21 22  1  0
 22 23  2  0
 18 23  1  0
 24 25  1  0
 21 24  1  0
 26 27  1  0
 20 26  1  0
  2 18  1  0
M  END
>  <Curated_InChIs>  (155) 
InChI=1S/C22H19N3O2/c1-26-19-13-12-15(14-20(19)27-2)21-24-18-11-7-6-10-17(18)22(25-21)23-16-8-4-3-5-9-16/h3-14H,1-2H3,(H,23,24,25)

>  <threshold>  (155) 
5

>  <pchembl>  (155) 
5.39, 5.7

>  <Classification>  (155) 
1

>  <source>  (155) 
chembl_28

>  <SMILES>  (155) 
COc1ccc(-c2nc(Nc3ccccc3)c3ccccc3n2)cc1OC

>  <InChIKey>  (155) 
WIBHNHLORNKGTP-UHFFFAOYSA-N

$$$$

     RDKit          2D

 28 32  0  0  0  0  0  0  0  0999 V2000
   12.8095  -12.0391    0.0000 C   0  0  0  0  0  0  0  0  0  0  0  0
   12.8084  -12.8586    0.0000 C   0  0  0  0  0  0  0  0  0  0  0  0
   13.5164  -13.2676    0.0000 C   0  0  0  0  0  0  0  0  0  0  0  0
   13.5146  -11.6302    0.0000 C   0  0  0  0  0  0  0  0  0  0  0  0
   14.2232  -12.0355    0.0000 C   0  0  0  0  0  0  0  0  0  0  0  0
   14.2235  -12.8587    0.0000 C   0  0  0  0  0  0  0  0  0  0  0  0
   15.0065  -13.1128    0.0000 N   0  0  0  0  0  0  0  0  0  0  0  0
   15.0060  -11.7809    0.0000 C   0  0  0  0  0  0  0  0  0  0  0  0
   15.4902  -12.4481    0.0000 C   0  0  0  0  0  0  0  0  0  0  0  0
   16.3055  -12.3628    0.0000 C   0  0  0  0  0  0  0  0  0  0  0  0
   16.6430  -11.6114    0.0000 N   0  0  0  0  0  0  0  0  0  0  0  0
   16.1588  -10.9443    0.0000 C   0  0  0  0  0  0  0  0  0  0  0  0
   15.3372  -11.0285    0.0000 C   0  0  0  0  0  0  0  0  0  0  0  0
   17.4559  -11.5275    0.0000 C   0  0  0  0  0  0  0  0  0  0  0  0
   17.9350  -12.1895    0.0000 O   0  0  0  0  0  0  0  0  0  0  0  0
   17.7897  -10.7816    0.0000 C   0  0  0  0  0  0  0  0  0  0  0  0
   18.6028  -10.7017    0.0000 C   0  0  0  0  0  0  0  0  0  0  0  0
   18.9366   -9.9566    0.0000 C   0  0  0  0  0  0  0  0  0  0  0  0
   18.4573   -9.2936    0.0000 C   0  0  0  0  0  0  0  0  0  0  0  0
   17.6405   -9.3806    0.0000 C   0  0  0  0  0  0  0  0  0  0  0  0
   17.3104  -10.1259    0.0000 C   0  0  0  0  0  0  0  0  0  0  0  0
   16.7855  -13.0214    0.0000 C   0  0  0  0  0  0  0  0  0  0  0  0
   16.4500  -13.7678    0.0000 C   0  0  0  0  0  0  0  0  0  0  0  0
   16.9284  -14.4294    0.0000 C   0  0  0  0  0  0  0  0  0  0  0  0
   17.7422  -14.3459    0.0000 C   0  0  0  0  0  0  0  0  0  0  0  0
   18.0753  -13.5950    0.0000 C   0  0  0  0  0  0  0  0  0  0  0  0
   17.5949  -12.9365    0.0000 C   0  0  0  0  0  0  0  0  0  0  0  0
   18.2221  -15.0072    0.0000 C   0  0  0  0  0  0  0  0  0  0  0  0
  1  2  2  0
  2  3  1  0
  3  6  2  0
  5  4  2  0
  4  1  1  0
  5  6  1  0
  6  7  1  0
  7  9  1  0
  8  5  1  0
  8  9  2  0
  8 13  1  0
  9 10  1  0
 10 11  1  0
 11 12  1  0
 12 13  1  0
 11 14  1  0
 14 15  2  0
 14 16  1  0
 16 17  2  0
 17 18  1  0
 18 19  2  0
 19 20  1  0
 20 21  2  0
 21 16  1  0
 22 23  2  0
 23 24  1  0
 24 25  2  0
 25 26  1  0
 26 27  2  0
 27 22  1  0
 10 22  1  0
 25 28  1  0
M  END
>  <Curated_InChIs>  (156) 
InChI=1S/C25H22N2O/c1-17-11-13-18(14-12-17)24-23-21(20-9-5-6-10-22(20)26-23)15-16-27(24)25(28)19-7-3-2-4-8-19/h2-14,24,26H,15-16H2,1H3

>  <threshold>  (156) 
5

>  <pchembl>  (156) 
5.84

>  <Classification>  (156) 
1

>  <source>  (156) 
chembl_28

>  <SMILES>  (156) 
Cc1ccc(C2c3[nH]c4ccccc4c3CCN2C(=O)c2ccccc2)cc1

>  <InChIKey>  (156) 
WLLGKIHVKHWICH-UHFFFAOYSA-N

$$$$

     RDKit          2D

 33 37  0  0  0  0  0  0  0  0999 V2000
   31.5719   -4.2015    0.0000 C   0  0  0  0  0  0  0  0  0  0  0  0
   31.5707   -5.0210    0.0000 C   0  0  0  0  0  0  0  0  0  0  0  0
   32.2788   -5.4300    0.0000 C   0  0  0  0  0  0  0  0  0  0  0  0
   32.2770   -3.7926    0.0000 C   0  0  0  0  0  0  0  0  0  0  0  0
   32.9856   -4.1979    0.0000 C   0  0  0  0  0  0  0  0  0  0  0  0
   32.9859   -5.0211    0.0000 C   0  0  0  0  0  0  0  0  0  0  0  0
   33.7688   -5.2752    0.0000 N   0  0  0  0  0  0  0  0  0  0  0  0
   33.7684   -3.9433    0.0000 C   0  0  0  0  0  0  0  0  0  0  0  0
   34.2526   -4.6104    0.0000 C   0  0  0  0  0  0  0  0  0  0  0  0
   35.0679   -4.5252    0.0000 C   0  0  0  0  0  0  0  0  0  0  0  0
   35.4054   -3.7738    0.0000 N   0  0  0  0  0  0  0  0  0  0  0  0
   34.9212   -3.1067    0.0000 C   0  0  0  0  0  0  0  0  0  0  0  0
   34.0995   -3.1909    0.0000 C   0  0  0  0  0  0  0  0  0  0  0  0
   36.2183   -3.6899    0.0000 C   0  0  0  0  0  0  0  0  0  0  0  0
   36.6973   -4.3519    0.0000 O   0  0  0  0  0  0  0  0  0  0  0  0
   36.5520   -2.9440    0.0000 C   0  0  0  0  0  0  0  0  0  0  0  0
   37.3652   -2.8641    0.0000 C   0  0  0  0  0  0  0  0  0  0  0  0
   37.6989   -2.1190    0.0000 C   0  0  0  0  0  0  0  0  0  0  0  0
   37.2197   -1.4560    0.0000 C   0  0  0  0  0  0  0  0  0  0  0  0
   36.4029   -1.5430    0.0000 C   0  0  0  0  0  0  0  0  0  0  0  0
   36.0728   -2.2883    0.0000 C   0  0  0  0  0  0  0  0  0  0  0  0
   35.5478   -5.1838    0.0000 C   0  0  0  0  0  0  0  0  0  0  0  0
   35.2124   -5.9302    0.0000 C   0  0  0  0  0  0  0  0  0  0  0  0
   35.6908   -6.5918    0.0000 C   0  0  0  0  0  0  0  0  0  0  0  0
   36.5046   -6.5083    0.0000 C   0  0  0  0  0  0  0  0  0  0  0  0
   36.8377   -5.7574    0.0000 C   0  0  0  0  0  0  0  0  0  0  0  0
   36.3573   -5.0989    0.0000 C   0  0  0  0  0  0  0  0  0  0  0  0
   37.5525   -0.7097    0.0000 O   0  0  0  0  0  0  0  0  0  0  0  0
   38.3652   -0.6247    0.0000 C   0  0  0  0  0  0  0  0  0  0  0  0
   38.5119   -2.0355    0.0000 O   0  0  0  0  0  0  0  0  0  0  0  0
   38.9906   -2.6978    0.0000 C   0  0  0  0  0  0  0  0  0  0  0  0
   35.3566   -7.3376    0.0000 F   0  0  0  0  0  0  0  0  0  0  0  0
   36.9845   -7.1696    0.0000 F   0  0  0  0  0  0  0  0  0  0  0  0
  1  2  2  0
  2  3  1  0
  3  6  2  0
  5  4  2  0
  4  1  1  0
  5  6  1  0
  6  7  1  0
  7  9  1  0
  8  5  1  0
  8  9  2  0
  8 13  1  0
  9 10  1  0
 10 11  1  0
 11 12  1  0
 12 13  1  0
 11 14  1  0
 14 15  2  0
 14 16  1  0
 16 17  2  0
 17 18  1  0
 18 19  2  0
 19 20  1  0
 20 21  2  0
 21 16  1  0
 22 23  2  0
 23 24  1  0
 24 25  2  0
 25 26  1  0
 26 27  2  0
 27 22  1  0
 10 22  1  0
 19 28  1  0
 28 29  1  0
 18 30  1  0
 30 31  1  0
 24 32  1  0
 25 33  1  0
M  END
>  <Curated_InChIs>  (157) 
InChI=1S/C26H22F2N2O3/c1-32-22-10-8-16(14-23(22)33-2)26(31)30-12-11-18-17-5-3-4-6-21(17)29-24(18)25(30)15-7-9-19(27)20(28)13-15/h3-10,13-14,25,29H,11-12H2,1-2H3

>  <threshold>  (157) 
5

>  <pchembl>  (157) 
5.96

>  <Classification>  (157) 
1

>  <source>  (157) 
chembl_28

>  <SMILES>  (157) 
COc1ccc(C(=O)N2CCc3c([nH]c4ccccc34)C2c2ccc(F)c(F)c2)cc1OC

>  <InChIKey>  (157) 
WLRAQTWZGSZEJX-UHFFFAOYSA-N

$$$$

     RDKit          2D

 24 27  0  0  0  0  0  0  0  0999 V2000
    1.5752  -11.3540    0.0000 C   0  0  0  0  0  0  0  0  0  0  0  0
    1.5740  -12.1776    0.0000 C   0  0  0  0  0  0  0  0  0  0  0  0
    2.2862  -12.5907    0.0000 C   0  0  0  0  0  0  0  0  0  0  0  0
    2.2844  -10.9451    0.0000 C   0  0  0  0  0  0  0  0  0  0  0  0
    2.9972  -11.3504    0.0000 C   0  0  0  0  0  0  0  0  0  0  0  0
    2.9979  -12.1735    0.0000 C   0  0  0  0  0  0  0  0  0  0  0  0
    3.7106  -12.5847    0.0000 N   0  0  0  0  0  0  0  0  0  0  0  0
    4.4189  -12.1698    0.0000 C   0  0  0  0  0  0  0  0  0  0  0  0
    4.4141  -11.3435    0.0000 C   0  0  0  0  0  0  0  0  0  0  0  0
    3.7050  -10.9401    0.0000 C   0  0  0  0  0  0  0  0  0  0  0  0
    3.7007  -10.1188    0.0000 N   0  0  0  0  0  0  0  0  0  0  0  0
    4.4062   -9.7024    0.0000 C   0  0  0  0  0  0  0  0  0  0  0  0
    5.1156  -10.1147    0.0000 C   0  0  0  0  0  0  0  0  0  0  0  0
    5.8248   -9.6989    0.0000 C   0  0  0  0  0  0  0  0  0  0  0  0
    5.8209   -8.8767    0.0000 C   0  0  0  0  0  0  0  0  0  0  0  0
    5.1019   -8.4721    0.0000 C   0  0  0  0  0  0  0  0  0  0  0  0
    4.3957   -8.8861    0.0000 C   0  0  0  0  0  0  0  0  0  0  0  0
    5.1287  -12.5756    0.0000 C   0  0  0  0  0  0  0  0  0  0  0  0
    5.1306  -13.3981    0.0000 C   0  0  0  0  0  0  0  0  0  0  0  0
    5.8431  -13.8038    0.0000 C   0  0  0  0  0  0  0  0  0  0  0  0
    6.5544  -13.3924    0.0000 C   0  0  0  0  0  0  0  0  0  0  0  0
    6.5485  -12.5669    0.0000 C   0  0  0  0  0  0  0  0  0  0  0  0
    5.8354  -12.1607    0.0000 C   0  0  0  0  0  0  0  0  0  0  0  0
    6.5386  -10.1082    0.0000 F   0  0  0  0  0  0  0  0  0  0  0  0
  1  2  2  0
  2  3  1  0
  3  6  2  0
  5  4  2  0
  4  1  1  0
  5  6  1  0
  6  7  1  0
  7  8  2  0
  8  9  1  0
  9 10  2  0
 10  5  1  0
 10 11  1  0
 11 12  1  0
 12 13  2  0
 13 14  1  0
 14 15  2  0
 15 16  1  0
 16 17  2  0
 17 12  1  0
 18 19  2  0
 19 20  1  0
 20 21  2  0
 21 22  1  0
 22 23  2  0
 23 18  1  0
  8 18  1  0
 14 24  1  0
M  END
>  <Curated_InChIs>  (158) 
InChI=1S/C21H15FN2/c22-16-9-6-10-17(13-16)23-21-14-20(15-7-2-1-3-8-15)24-19-12-5-4-11-18(19)21/h1-14H,(H,23,24)

>  <threshold>  (158) 
5

>  <pchembl>  (158) 
5.67

>  <Classification>  (158) 
1

>  <source>  (158) 
chembl_28

>  <SMILES>  (158) 
Fc1cccc(Nc2cc(-c3ccccc3)nc3ccccc23)c1

>  <InChIKey>  (158) 
WLRSLSAGIHMHHP-UHFFFAOYSA-N

$$$$

     RDKit          2D

 25 28  0  0  0  0  0  0  0  0999 V2000
   33.3714   -3.5122    0.0000 C   0  0  0  0  0  0  0  0  0  0  0  0
   33.3702   -4.3318    0.0000 C   0  0  0  0  0  0  0  0  0  0  0  0
   34.0783   -4.7407    0.0000 C   0  0  0  0  0  0  0  0  0  0  0  0
   34.0765   -3.1034    0.0000 C   0  0  0  0  0  0  0  0  0  0  0  0
   34.7851   -3.5086    0.0000 C   0  0  0  0  0  0  0  0  0  0  0  0
   34.7858   -4.3276    0.0000 C   0  0  0  0  0  0  0  0  0  0  0  0
   35.4944   -4.7347    0.0000 N   0  0  0  0  0  0  0  0  0  0  0  0
   36.2026   -4.3239    0.0000 C   0  0  0  0  0  0  0  0  0  0  0  0
   36.1979   -3.5018    0.0000 C   0  0  0  0  0  0  0  0  0  0  0  0
   35.4888   -3.0984    0.0000 C   0  0  0  0  0  0  0  0  0  0  0  0
   35.4845   -2.2812    0.0000 N   0  0  0  0  0  0  0  0  0  0  0  0
   36.1900   -1.8689    0.0000 C   0  0  0  0  0  0  0  0  0  0  0  0
   36.8953   -2.2771    0.0000 C   0  0  0  0  0  0  0  0  0  0  0  0
   37.6003   -1.8654    0.0000 C   0  0  0  0  0  0  0  0  0  0  0  0
   37.5964   -1.0474    0.0000 C   0  0  0  0  0  0  0  0  0  0  0  0
   36.8816   -0.6427    0.0000 C   0  0  0  0  0  0  0  0  0  0  0  0
   36.1795   -1.0567    0.0000 C   0  0  0  0  0  0  0  0  0  0  0  0
   36.9084   -4.7257    0.0000 C   0  0  0  0  0  0  0  0  0  0  0  0
   36.9102   -5.5440    0.0000 C   0  0  0  0  0  0  0  0  0  0  0  0
   37.6187   -5.9497    0.0000 C   0  0  0  0  0  0  0  0  0  0  0  0
   38.3258   -5.5383    0.0000 C   0  0  0  0  0  0  0  0  0  0  0  0
   38.3200   -4.7169    0.0000 C   0  0  0  0  0  0  0  0  0  0  0  0
   37.6109   -4.3149    0.0000 C   0  0  0  0  0  0  0  0  0  0  0  0
   38.3100   -2.2706    0.0000 O   0  0  0  0  0  0  0  0  0  0  0  0
   38.3139   -3.0878    0.0000 C   0  0  0  0  0  0  0  0  0  0  0  0
  1  2  2  0
  2  3  1  0
  3  6  2  0
  5  4  2  0
  4  1  1  0
  5  6  1  0
  6  7  1  0
  7  8  2  0
  8  9  1  0
  9 10  2  0
 10  5  1  0
 10 11  1  0
 11 12  1  0
 12 13  2  0
 13 14  1  0
 14 15  2  0
 15 16  1  0
 16 17  2  0
 17 12  1  0
 18 19  2  0
 19 20  1  0
 20 21  2  0
 21 22  1  0
 22 23  2  0
 23 18  1  0
  8 18  1  0
 14 24  1  0
 24 25  1  0
M  END
>  <Curated_InChIs>  (159) 
InChI=1S/C22H18N2O/c1-25-18-11-7-10-17(14-18)23-22-15-21(16-8-3-2-4-9-16)24-20-13-6-5-12-19(20)22/h2-15H,1H3,(H,23,24)

>  <threshold>  (159) 
5

>  <pchembl>  (159) 
6.02

>  <Classification>  (159) 
1

>  <source>  (159) 
chembl_28

>  <SMILES>  (159) 
COc1cccc(Nc2cc(-c3ccccc3)nc3ccccc23)c1

>  <InChIKey>  (159) 
WROGXTDUYKIWNZ-UHFFFAOYSA-N

$$$$

     RDKit          2D

 28 31  0  0  0  0  0  0  0  0999 V2000
   26.8751   -3.7310    0.0000 C   0  0  0  0  0  0  0  0  0  0  0  0
   26.8739   -4.5505    0.0000 C   0  0  0  0  0  0  0  0  0  0  0  0
   27.5820   -4.9595    0.0000 C   0  0  0  0  0  0  0  0  0  0  0  0
   27.5802   -3.3221    0.0000 C   0  0  0  0  0  0  0  0  0  0  0  0
   28.2888   -3.7274    0.0000 C   0  0  0  0  0  0  0  0  0  0  0  0
   28.2896   -4.5464    0.0000 C   0  0  0  0  0  0  0  0  0  0  0  0
   28.9981   -4.9535    0.0000 N   0  0  0  0  0  0  0  0  0  0  0  0
   29.7064   -4.5426    0.0000 C   0  0  0  0  0  0  0  0  0  0  0  0
   29.7016   -3.7205    0.0000 N   0  0  0  0  0  0  0  0  0  0  0  0
   28.9925   -3.3171    0.0000 C   0  0  0  0  0  0  0  0  0  0  0  0
   30.4198   -4.9456    0.0000 C   0  0  0  0  0  0  0  0  0  0  0  0
   28.9882   -2.5000    0.0000 N   0  0  0  0  0  0  0  0  0  0  0  0
   30.4226   -5.7649    0.0000 C   0  0  0  0  0  0  0  0  0  0  0  0
   31.1352   -6.1678    0.0000 C   0  0  0  0  0  0  0  0  0  0  0  0
   31.8419   -5.7514    0.0000 C   0  0  0  0  0  0  0  0  0  0  0  0
   31.8315   -4.9278    0.0000 C   0  0  0  0  0  0  0  0  0  0  0  0
   31.1184   -4.5286    0.0000 C   0  0  0  0  0  0  0  0  0  0  0  0
   29.6937   -2.0876    0.0000 C   0  0  0  0  0  0  0  0  0  0  0  0
   29.6894   -1.2704    0.0000 O   0  0  0  0  0  0  0  0  0  0  0  0
   30.4036   -2.4925    0.0000 C   0  0  0  0  0  0  0  0  0  0  0  0
   30.4027   -3.3070    0.0000 C   0  0  0  0  0  0  0  0  0  0  0  0
   31.1118   -3.7118    0.0000 C   0  0  0  0  0  0  0  0  0  0  0  0
   31.8183   -3.2994    0.0000 C   0  0  0  0  0  0  0  0  0  0  0  0
   31.8113   -2.4780    0.0000 C   0  0  0  0  0  0  0  0  0  0  0  0
   31.1017   -2.0769    0.0000 C   0  0  0  0  0  0  0  0  0  0  0  0
   32.5312   -3.7032    0.0000 N   0  0  0  0  0  0  0  0  0  0  0  0
   33.2362   -3.2899    0.0000 O   0  0  0  0  0  0  0  0  0  0  0  0
   32.5366   -4.5204    0.0000 O   0  0  0  0  0  0  0  0  0  0  0  0
  1  2  2  0
  2  3  1  0
  3  6  2  0
  5  4  2  0
  4  1  1  0
  5  6  1  0
  6  7  1  0
  7  8  2  0
  8  9  1  0
  9 10  2  0
 10  5  1  0
  8 11  1  0
 10 12  1  0
 11 13  2  0
 13 14  1  0
 14 15  2  0
 15 16  1  0
 16 17  2  0
 17 11  1  0
 12 18  1  0
 18 19  2  0
 18 20  1  0
 20 21  2  0
 21 22  1  0
 22 23  2  0
 23 24  1  0
 24 25  2  0
 25 20  1  0
 26 27  2  0
 26 28  1  0
 23 26  1  0
M  CHG  2  26   1  28  -1
M  END
>  <Curated_InChIs>  (160) 
InChI=1S/C21H14N4O3/c26-21(15-10-12-16(13-11-15)25(27)28)24-20-17-8-4-5-9-18(17)22-19(23-20)14-6-2-1-3-7-14/h1-13H,(H,22,23,24,26)

>  <threshold>  (160) 
5

>  <pchembl>  (160) 
7.11, 7.03

>  <Classification>  (160) 
1

>  <source>  (160) 
chembl_28

>  <SMILES>  (160) 
O=C(Nc1nc(-c2ccccc2)nc2ccccc12)c1ccc([N+](=O)[O-])cc1

>  <InChIKey>  (160) 
XBJOUPFIBJIIBB-UHFFFAOYSA-N

$$$$

     RDKit          2D

 37 40  0  0  0  0  0  0  0  0999 V2000
    7.2955   -9.3151    0.0000 C   0  0  0  0  0  0  0  0  0  0  0  0
    7.2944  -10.1347    0.0000 C   0  0  0  0  0  0  0  0  0  0  0  0
    8.0024  -10.5436    0.0000 C   0  0  0  0  0  0  0  0  0  0  0  0
    8.7121  -10.1342    0.0000 C   0  0  0  0  0  0  0  0  0  0  0  0
    8.7093   -9.3115    0.0000 C   0  0  0  0  0  0  0  0  0  0  0  0
    8.0006   -8.9063    0.0000 C   0  0  0  0  0  0  0  0  0  0  0  0
    6.5877   -8.9067    0.0000 O   0  0  0  0  0  0  0  0  0  0  0  0
    9.4154   -8.9003    0.0000 C   0  0  0  0  0  0  0  0  0  0  0  0
   10.1247   -9.3062    0.0000 C   0  0  0  0  0  0  0  0  0  0  0  0
    9.4123   -8.0831    0.0000 O   0  0  0  0  0  0  0  0  0  0  0  0
   10.8308   -8.8949    0.0000 C   0  0  0  0  0  0  0  0  0  0  0  0
   11.5401   -9.3009    0.0000 C   0  0  0  0  0  0  0  0  0  0  0  0
    5.8801   -9.3155    0.0000 C   0  0  0  0  0  0  0  0  0  0  0  0
    5.1723   -8.9070    0.0000 C   0  0  0  0  0  0  0  0  0  0  0  0
    4.4647   -9.3158    0.0000 N   0  0  0  0  0  0  0  0  0  0  0  0
    5.1721   -8.0898    0.0000 O   0  0  0  0  0  0  0  0  0  0  0  0
    3.7569   -8.9074    0.0000 C   0  0  0  0  0  0  0  0  0  0  0  0
   11.5401  -10.1169    0.0000 C   0  0  0  0  0  0  0  0  0  0  0  0
   12.2485  -10.5228    0.0000 C   0  0  0  0  0  0  0  0  0  0  0  0
   12.9556  -10.1114    0.0000 C   0  0  0  0  0  0  0  0  0  0  0  0
   12.9499   -9.2900    0.0000 C   0  0  0  0  0  0  0  0  0  0  0  0
   12.2409   -8.8879    0.0000 C   0  0  0  0  0  0  0  0  0  0  0  0
    3.7605   -8.0899    0.0000 C   0  0  0  0  0  0  0  0  0  0  0  0
    3.0536   -7.6816    0.0000 C   0  0  0  0  0  0  0  0  0  0  0  0
    3.0554   -9.3165    0.0000 C   0  0  0  0  0  0  0  0  0  0  0  0
    2.3478   -8.9118    0.0000 C   0  0  0  0  0  0  0  0  0  0  0  0
    2.3439   -8.0866    0.0000 C   0  0  0  0  0  0  0  0  0  0  0  0
    1.5579   -7.8354    0.0000 C   0  0  0  0  0  0  0  0  0  0  0  0
    1.0760   -8.5053    0.0000 O   0  0  0  0  0  0  0  0  0  0  0  0
    1.5642   -9.1705    0.0000 C   0  0  0  0  0  0  0  0  0  0  0  0
    1.3017   -7.0594    0.0000 O   0  0  0  0  0  0  0  0  0  0  0  0
   13.6654  -10.5164    0.0000 O   0  0  0  0  0  0  0  0  0  0  0  0
   13.6696  -11.3336    0.0000 C   0  0  0  0  0  0  0  0  0  0  0  0
   13.6546   -8.8763    0.0000 O   0  0  0  0  0  0  0  0  0  0  0  0
   14.3653   -9.2797    0.0000 C   0  0  0  0  0  0  0  0  0  0  0  0
   12.2511  -11.3399    0.0000 O   0  0  0  0  0  0  0  0  0  0  0  0
   11.5448  -11.7509    0.0000 C   0  0  0  0  0  0  0  0  0  0  0  0
  1  2  2  0
  2  3  1  0
  3  4  2  0
  4  5  1  0
  5  6  2  0
  6  1  1  0
  1  7  1  0
  5  8  1  0
  8  9  1  0
  8 10  2  0
  9 11  2  0
 11 12  1  0
  7 13  1  0
 13 14  1  0
 14 15  1  0
 14 16  2  0
 15 17  1  0
 12 18  2  0
 18 19  1  0
 19 20  2  0
 20 21  1  0
 21 22  2  0
 22 12  1  0
 17 23  2  0
 23 24  1  0
 24 27  2  0
 26 25  2  0
 25 17  1  0
 26 27  1  0
 27 28  1  0
 28 29  1  0
 29 30  1  0
 30 26  1  0
 28 31  2  0
 20 32  1  0
 32 33  1  0
 21 34  1  0
 34 35  1  0
 19 36  1  0
 36 37  1  0
M  END
>  <Curated_InChIs>  (161) 
InChI=1S/C28H25NO8/c1-33-24-11-17(12-25(34-2)27(24)35-3)7-10-23(30)18-5-4-6-21(14-18)36-16-26(31)29-20-8-9-22-19(13-20)15-37-28(22)32/h4-14H,15-16H2,1-3H3,(H,29,31)

>  <threshold>  (161) 
5

>  <pchembl>  (161) 
5.0

>  <Classification>  (161) 
1

>  <source>  (161) 
chembl_28

>  <SMILES>  (161) 
COc1cc(/C=C/C(=O)c2cccc(OCC(=O)Nc3ccc4c(c3)COC4=O)c2)cc(OC)c1OC

>  <InChIKey>  (161) 
XCVSZUBQCQESAH-JXMROGBWSA-N

$$$$

     RDKit          2D

 22 25  0  0  0  0  0  0  0  0999 V2000
   -2.4915    1.5389    0.0000 C   0  0  0  0  0  0  0  0  0  0  0  0
   -3.7006    0.8244    0.0000 N   0  0  0  0  0  0  0  0  0  0  0  0
   -3.7006   -0.6045    0.0000 C   0  0  0  0  0  0  0  0  0  0  0  0
   -2.4915   -1.3190    0.0000 N   0  0  0  0  0  0  0  0  0  0  0  0
   -1.2274    0.8244    0.0000 C   0  0  0  0  0  0  0  0  0  0  0  0
   -1.2274   -0.6045    0.0000 C   0  0  0  0  0  0  0  0  0  0  0  0
    0.0000   -1.3190    0.0000 C   0  0  0  0  0  0  0  0  0  0  0  0
    1.2274    0.8244    0.0000 N   0  0  0  0  0  0  0  0  0  0  0  0
    1.2274   -0.6045    0.0000 C   0  0  0  0  0  0  0  0  0  0  0  0
    2.4732   -1.3190    0.0000 C   0  0  0  0  0  0  0  0  0  0  0  0
    3.7372   -0.6045    0.0000 C   0  0  0  0  0  0  0  0  0  0  0  0
    3.7372    0.8244    0.0000 C   0  0  0  0  0  0  0  0  0  0  0  0
    2.4732    1.5389    0.0000 C   0  0  0  0  0  0  0  0  0  0  0  0
    0.0000   -2.8205    0.0000 C   0  0  0  0  0  0  0  0  0  0  0  0
    0.0000   -4.0205    0.0000 N   0  0  0  0  0  0  0  0  0  0  0  0
   -2.5225    3.0401    0.0000 N   0  0  0  0  0  0  0  0  0  0  0  0
   -3.8372    3.7640    0.0000 C   0  0  0  0  0  0  0  0  0  0  0  0
   -3.8705    5.2637    0.0000 C   0  0  0  0  0  0  0  0  0  0  0  0
   -5.1859    5.9847    0.0000 C   0  0  0  0  0  0  0  0  0  0  0  0
   -6.4680    5.2061    0.0000 C   0  0  0  0  0  0  0  0  0  0  0  0
   -6.4347    3.7065    0.0000 C   0  0  0  0  0  0  0  0  0  0  0  0
   -5.1194    2.9855    0.0000 C   0  0  0  0  0  0  0  0  0  0  0  0
  5  1  1  0
  1  2  2  0
  2  3  1  0
  3  4  2  0
  4  6  1  0
  5  6  2  0
  6  7  1  0
  7  9  2  0
  8  5  1  0
  8  9  1  0
  8 13  1  0
  9 10  1  0
 10 11  1  0
 11 12  1  0
 12 13  1  0
  7 14  1  0
 14 15  3  0
  1 16  1  0
 16 17  1  0
 17 18  2  0
 18 19  1  0
 19 20  2  0
 20 21  1  0
 21 22  2  0
 22 17  1  0
M  END
>  <Curated_InChIs>  (162) 
InChI=1S/C17H15N5/c18-10-13-14-8-4-5-9-22(14)16-15(13)19-11-20-17(16)21-12-6-2-1-3-7-12/h1-3,6-7,11H,4-5,8-9H2,(H,19,20,21)

>  <threshold>  (162) 
5

>  <pchembl>  (162) 
5.12

>  <Classification>  (162) 
1

>  <source>  (162) 
chembl_28

>  <SMILES>  (162) 
N#Cc1c2n(c3c(Nc4ccccc4)ncnc13)CCCC2

>  <InChIKey>  (162) 
XCXHUSAJEPRMFX-UHFFFAOYSA-N

$$$$

     RDKit          2D

 26 29  0  0  0  0  0  0  0  0999 V2000
   -3.7800    1.8600    0.0000 C   0  0  0  0  0  0  0  0  0  0  0  0
   -3.7800    0.4000    0.0000 C   0  0  0  0  0  0  0  0  0  0  0  0
   -2.5200   -0.3300    0.0000 C   0  0  0  0  0  0  0  0  0  0  0  0
   -2.5200    2.6000    0.0000 C   0  0  0  0  0  0  0  0  0  0  0  0
   -1.2800    1.8600    0.0000 C   0  0  0  0  0  0  0  0  0  0  0  0
   -1.2800    0.4000    0.0000 C   0  0  0  0  0  0  0  0  0  0  0  0
    0.0000   -0.3300    0.0000 N   0  0  0  0  0  0  0  0  0  0  0  0
    1.2600    1.8600    0.0000 C   0  0  0  0  0  0  0  0  0  0  0  0
    1.2600    0.4000    0.0000 C   0  0  0  0  0  0  0  0  0  0  0  0
    2.5200   -0.3300    0.0000 C   0  0  0  0  0  0  0  0  0  0  0  0
    2.5200    2.6000    0.0000 C   0  0  0  0  0  0  0  0  0  0  0  0
    3.8000    1.8600    0.0000 C   0  0  0  0  0  0  0  0  0  0  0  0
    3.8000    0.4000    0.0000 N   0  0  0  0  0  0  0  0  0  0  0  0
    5.0500   -0.3600    0.0000 C   0  0  0  0  0  0  0  0  0  0  0  0
    6.3600    0.4000    0.0000 C   0  0  0  0  0  0  0  0  0  0  0  0
    6.3600    1.8600    0.0000 N   0  0  0  0  0  0  0  0  0  0  0  0
    5.0500    2.5700    0.0000 C   0  0  0  0  0  0  0  0  0  0  0  0
   -5.0786   -0.3532    0.0000 O   0  0  0  0  0  0  0  0  0  0  0  0
   -5.0770   -1.5532    0.0000 C   0  0  0  0  0  0  0  0  0  0  0  0
    5.0381    3.7699    0.0000 O   0  0  0  0  0  0  0  0  0  0  0  0
    5.0377   -1.5599    0.0000 O   0  0  0  0  0  0  0  0  0  0  0  0
    7.3999   -0.1989    0.0000 C   0  0  0  0  0  0  0  0  0  0  0  0
    2.5070   -1.8312    0.0000 C   0  0  0  0  0  0  0  0  0  0  0  0
    1.2012   -2.5710    0.0000 C   0  0  0  0  0  0  0  0  0  0  0  0
    1.1907   -3.7710    0.0000 C   0  0  0  0  0  0  0  0  0  0  0  0
    0.1670   -1.9623    0.0000 C   0  0  0  0  0  0  0  0  0  0  0  0
  1  2  2  0
  2  3  1  0
  3  6  2  0
  5  4  2  0
  4  1  1  0
  5  6  1  0
  6  7  1  0
  7  9  1  0
  8  5  1  0
  8  9  2  0
  8 11  1  0
  9 10  1  0
 10 13  1  0
 12 11  1  1
 12 13  1  0
 12 17  1  0
 13 14  1  0
 14 15  1  0
 15 16  1  0
 16 17  1  0
  2 18  1  0
 18 19  1  0
 17 20  2  0
 14 21  2  0
 15 22  1  1
 10 23  1  1
 23 24  1  0
 24 25  1  0
 24 26  1  0
M  END
>  <Curated_InChIs>  (163) 
InChI=1S/C20H25N3O3/c1-10(2)7-16-18-14(13-6-5-12(26-4)8-15(13)22-18)9-17-19(24)21-11(3)20(25)23(16)17/h5-6,8,10-11,16-17,22H,7,9H2,1-4H3,(H,21,24)

>  <threshold>  (163) 
5

>  <pchembl>  (163) 
6.21, 6.22

>  <Classification>  (163) 
1

>  <source>  (163) 
chembl_28

>  <SMILES>  (163) 
COc1ccc2c3c([nH]c2c1)[C@H](CC(C)C)N1C(=O)[C@H](C)NC(=O)[C@@H]1C3

>  <InChIKey>  (163) 
XDVXQQDQFWVCAU-GOPGUHFVSA-N

$$$$

     RDKit          2D

 36 40  0  0  0  0  0  0  0  0999 V2000
   31.8292   -3.2605    0.0000 C   0  0  0  0  0  0  0  0  0  0  0  0
   31.8292   -4.0818    0.0000 C   0  0  0  0  0  0  0  0  0  0  0  0
   32.5386   -4.4904    0.0000 O   0  0  0  0  0  0  0  0  0  0  0  0
   32.5386   -2.8478    0.0000 C   0  0  0  0  0  0  0  0  0  0  0  0
   33.2439   -3.2605    0.0000 C   0  0  0  0  0  0  0  0  0  0  0  0
   33.2423   -4.0800    0.0000 C   0  0  0  0  0  0  0  0  0  0  0  0
   33.9506   -4.4914    0.0000 C   0  0  0  0  0  0  0  0  0  0  0  0
   34.6610   -4.0803    0.0000 C   0  0  0  0  0  0  0  0  0  0  0  0
   34.6587   -3.2577    0.0000 C   0  0  0  0  0  0  0  0  0  0  0  0
   33.9498   -2.8541    0.0000 C   0  0  0  0  0  0  0  0  0  0  0  0
   32.5386   -2.0265    0.0000 O   0  0  0  0  0  0  0  0  0  0  0  0
   31.1179   -4.4956    0.0000 O   0  0  0  0  0  0  0  0  0  0  0  0
   30.4055   -4.0839    0.0000 C   0  0  0  0  0  0  0  0  0  0  0  0
   29.6943   -4.4976    0.0000 C   0  0  0  0  0  0  0  0  0  0  0  0
   28.9818   -4.0859    0.0000 N   0  0  0  0  0  0  0  0  0  0  0  0
   29.6955   -5.3189    0.0000 O   0  0  0  0  0  0  0  0  0  0  0  0
   28.2706   -4.4997    0.0000 C   0  0  0  0  0  0  0  0  0  0  0  0
   26.8532   -5.3216    0.0000 C   0  0  0  0  0  0  0  0  0  0  0  0
   27.5706   -5.7290    0.0000 C   0  0  0  0  0  0  0  0  0  0  0  0
   28.2743   -5.3177    0.0000 C   0  0  0  0  0  0  0  0  0  0  0  0
   31.1186   -2.8561    0.0000 C   0  0  0  0  0  0  0  0  0  0  0  0
   31.1175   -2.0337    0.0000 C   0  0  0  0  0  0  0  0  0  0  0  0
   30.4053   -1.6231    0.0000 C   0  0  0  0  0  0  0  0  0  0  0  0
   29.6937   -2.0380    0.0000 C   0  0  0  0  0  0  0  0  0  0  0  0
   29.6987   -2.8635    0.0000 C   0  0  0  0  0  0  0  0  0  0  0  0
   30.4115   -3.2662    0.0000 C   0  0  0  0  0  0  0  0  0  0  0  0
   26.8524   -4.4994    0.0000 C   0  0  0  0  0  0  0  0  0  0  0  0
   27.5633   -4.0910    0.0000 C   0  0  0  0  0  0  0  0  0  0  0  0
   27.5655   -3.2745    0.0000 C   0  0  0  0  0  0  0  0  0  0  0  0
   26.8576   -2.8655    0.0000 C   0  0  0  0  0  0  0  0  0  0  0  0
   26.1460   -3.2748    0.0000 C   0  0  0  0  0  0  0  0  0  0  0  0
   26.1473   -4.0899    0.0000 C   0  0  0  0  0  0  0  0  0  0  0  0
   30.4033   -0.8018    0.0000 O   0  0  0  0  0  0  0  0  0  0  0  0
   28.9801   -1.6282    0.0000 O   0  0  0  0  0  0  0  0  0  0  0  0
   28.9766   -0.8069    0.0000 C   0  0  0  0  0  0  0  0  0  0  0  0
   31.1141   -0.3915    0.0000 C   0  0  0  0  0  0  0  0  0  0  0  0
  1  2  2  0
  1  4  1  0
  2  3  1  0
  3  6  1  0
  5  4  1  0
  5  6  2  0
  6  7  1  0
  7  8  2  0
  8  9  1  0
  9 10  2  0
 10  5  1  0
  4 11  2  0
  2 12  1  0
 12 13  1  0
 13 14  1  0
 14 15  1  0
 14 16  2  0
 15 17  1  0
 17 28  2  0
 27 18  2  0
 18 19  1  0
 19 20  2  0
 20 17  1  0
 21 22  2  0
 22 23  1  0
 23 24  2  0
 24 25  1  0
 25 26  2  0
 26 21  1  0
  1 21  1  0
 27 28  1  0
 28 29  1  0
 29 30  2  0
 30 31  1  0
 31 32  2  0
 32 27  1  0
 23 33  1  0
 24 34  1  0
 34 35  1  0
 33 36  1  0
M  END
>  <Curated_InChIs>  (164) 
InChI=1S/C29H23NO6/c1-33-24-15-14-19(16-25(24)34-2)27-28(32)21-11-5-6-13-23(21)36-29(27)35-17-26(31)30-22-12-7-9-18-8-3-4-10-20(18)22/h3-16H,17H2,1-2H3,(H,30,31)

>  <threshold>  (164) 
5

>  <pchembl>  (164) 
5.43

>  <Classification>  (164) 
1

>  <source>  (164) 
chembl_28

>  <SMILES>  (164) 
COc1ccc(-c2c(OCC(=O)Nc3cccc4ccccc34)oc3ccccc3c2=O)cc1OC

>  <InChIKey>  (164) 
XHPZUDHNRXYEOQ-UHFFFAOYSA-N

$$$$

     RDKit          2D

 20 22  0  0  0  0  0  0  0  0999 V2000
   13.2014   -7.9881    0.0000 N   0  0  0  0  0  0  0  0  0  0  0  0
   13.9204   -7.5997    0.0000 C   0  0  0  0  0  0  0  0  0  0  0  0
   13.9447   -6.7852    0.0000 N   0  0  0  0  0  0  0  0  0  0  0  0
   13.2482   -6.3556    0.0000 C   0  0  0  0  0  0  0  0  0  0  0  0
   12.5292   -6.7440    0.0000 C   0  0  0  0  0  0  0  0  0  0  0  0
   11.8327   -6.3144    0.0000 C   0  0  0  0  0  0  0  0  0  0  0  0
   11.1137   -6.7029    0.0000 C   0  0  0  0  0  0  0  0  0  0  0  0
   11.0913   -7.5210    0.0000 C   0  0  0  0  0  0  0  0  0  0  0  0
   11.7878   -7.9506    0.0000 C   0  0  0  0  0  0  0  0  0  0  0  0
   12.5068   -7.5621    0.0000 C   0  0  0  0  0  0  0  0  0  0  0  0
   13.2706   -5.5375    0.0000 N   0  0  0  0  0  0  0  0  0  0  0  0
   13.9896   -5.1491    0.0000 C   0  0  0  0  0  0  0  0  0  0  0  0
   14.6861   -5.5787    0.0000 C   0  0  0  0  0  0  0  0  0  0  0  0
   15.4051   -5.1902    0.0000 C   0  0  0  0  0  0  0  0  0  0  0  0
   15.4275   -4.3721    0.0000 C   0  0  0  0  0  0  0  0  0  0  0  0
   14.7309   -3.9425    0.0000 C   0  0  0  0  0  0  0  0  0  0  0  0
   14.0120   -4.3310    0.0000 C   0  0  0  0  0  0  0  0  0  0  0  0
   16.1016   -5.6199    0.0000 N   0  0  0  0  0  0  0  0  0  0  0  0
   16.0772   -6.4343    0.0000 O   0  0  0  0  0  0  0  0  0  0  0  0
   16.8206   -5.2314    0.0000 O   0  0  0  0  0  0  0  0  0  0  0  0
  1  2  2  0
  2  3  1  0
  3  4  2  0
  4  5  1  0
  5  6  2  0
  6  7  1  0
  7  8  2  0
  8  9  1  0
  9 10  2  0
  1 10  1  0
  5 10  1  0
  4 11  1  0
 12 13  2  0
 13 14  1  0
 14 15  2  0
 15 16  1  0
 16 17  2  0
 12 17  1  0
 18 19  2  0
 18 20  1  0
 14 18  1  0
 11 12  1  0
M  CHG  2  18   1  20  -1
M  END
>  <Curated_InChIs>  (165) 
InChI=1S/C14H10N4O2/c19-18(20)11-5-3-4-10(8-11)17-14-12-6-1-2-7-13(12)15-9-16-14/h1-9H,(H,15,16,17)

>  <threshold>  (165) 
5

>  <pchembl>  (165) 
6.05, 5.95

>  <Classification>  (165) 
1

>  <source>  (165) 
chembl_28

>  <SMILES>  (165) 
O=[N+]([O-])c1cccc(Nc2ncnc3ccccc23)c1

>  <InChIKey>  (165) 
XJOHOCFXDMKHIX-UHFFFAOYSA-N

$$$$

     RDKit          2D

 41 46  0  0  0  0  0  0  0  0999 V2000
    6.8311   -1.0271    0.0000 C   0  0  0  0  0  0  0  0  0  0  0  0
    6.8315   -1.8415    0.0000 N   0  0  0  0  0  0  0  0  0  0  0  0
    7.5367   -2.2473    0.0000 C   0  0  0  0  0  0  0  0  0  0  0  0
    7.5345   -0.6111    0.0000 C   0  0  0  0  0  0  0  0  0  0  0  0
    8.2442   -1.0214    0.0000 C   0  0  0  0  0  0  0  0  0  0  0  0
    8.2436   -1.8390    0.0000 C   0  0  0  0  0  0  0  0  0  0  0  0
    8.9502   -2.2466    0.0000 C   0  0  0  0  0  0  0  0  0  0  0  0
    9.6580   -1.8377    0.0000 C   0  0  0  0  0  0  0  0  0  0  0  0
    9.6546   -1.0169    0.0000 C   0  0  0  0  0  0  0  0  0  0  0  0
    8.9474   -0.6131    0.0000 C   0  0  0  0  0  0  0  0  0  0  0  0
    3.2962   -2.2617    0.0000 C   0  0  0  0  0  0  0  0  0  0  0  0
    3.2951   -3.0812    0.0000 C   0  0  0  0  0  0  0  0  0  0  0  0
    4.0031   -3.4902    0.0000 C   0  0  0  0  0  0  0  0  0  0  0  0
    4.7128   -3.0807    0.0000 C   0  0  0  0  0  0  0  0  0  0  0  0
    4.7100   -2.2581    0.0000 C   0  0  0  0  0  0  0  0  0  0  0  0
    4.0014   -1.8528    0.0000 C   0  0  0  0  0  0  0  0  0  0  0  0
    5.4161   -1.8468    0.0000 C   0  0  0  0  0  0  0  0  0  0  0  0
    2.5890   -3.4895    0.0000 C   0  0  0  0  0  0  0  0  0  0  0  0
    1.8813   -3.0787    0.0000 C   0  0  0  0  0  0  0  0  0  0  0  0
    1.1737   -3.4860    0.0000 C   0  0  0  0  0  0  0  0  0  0  0  0
    1.1727   -4.3041    0.0000 C   0  0  0  0  0  0  0  0  0  0  0  0
    1.8850   -4.7131    0.0000 C   0  0  0  0  0  0  0  0  0  0  0  0
    2.5896   -4.3034    0.0000 C   0  0  0  0  0  0  0  0  0  0  0  0
    0.4652   -4.7131    0.0000 C   0  0  0  0  0  0  0  0  0  0  0  0
   -0.2442   -4.3049    0.0000 O   0  0  0  0  0  0  0  0  0  0  0  0
    0.4656   -5.5303    0.0000 O   0  0  0  0  0  0  0  0  0  0  0  0
   -0.9565   -4.7138    0.0000 C   0  0  0  0  0  0  0  0  0  0  0  0
    1.8872   -5.5303    0.0000 N   0  0  0  0  0  0  0  0  0  0  0  0
    2.5961   -5.9369    0.0000 C   0  0  0  0  0  0  0  0  0  0  0  0
    2.5983   -6.7541    0.0000 O   0  0  0  0  0  0  0  0  0  0  0  0
    3.3027   -5.5264    0.0000 C   0  0  0  0  0  0  0  0  0  0  0  0
    4.0106   -5.9367    0.0000 N   0  0  0  0  0  0  0  0  0  0  0  0
    4.0011   -4.3023    0.0000 C   0  0  0  0  0  0  0  0  0  0  0  0
    3.2979   -4.7145    0.0000 C   0  0  0  0  0  0  0  0  0  0  0  0
    4.7149   -4.7088    0.0000 C   0  0  0  0  0  0  0  0  0  0  0  0
    4.7149   -5.5246    0.0000 C   0  0  0  0  0  0  0  0  0  0  0  0
    5.4202   -5.9307    0.0000 C   0  0  0  0  0  0  0  0  0  0  0  0
    6.1260   -5.5221    0.0000 C   0  0  0  0  0  0  0  0  0  0  0  0
    6.1221   -4.7033    0.0000 C   0  0  0  0  0  0  0  0  0  0  0  0
    5.4162   -4.3009    0.0000 C   0  0  0  0  0  0  0  0  0  0  0  0
    6.1254   -2.2528    0.0000 C   0  0  0  0  0  0  0  0  0  0  0  0
  1  2  1  0
  1  4  1  0
  2  3  1  0
  3  6  1  0
  5  4  1  0
  5  6  2  0
  6  7  1  0
  7  8  2  0
  8  9  1  0
  9 10  2  0
 10  5  1  0
 11 12  2  0
 12 13  1  0
 13 14  2  0
 14 15  1  0
 15 16  2  0
 16 11  1  0
 15 17  1  0
 18 19  2  0
 19 20  1  0
 20 21  2  0
 21 22  1  0
 22 23  2  0
 23 18  1  0
 12 18  1  0
 21 24  1  0
 24 25  1  0
 24 26  2  0
 25 27  1  0
 22 28  1  0
 28 29  1  0
 29 30  2  0
 29 31  1  0
 31 32  2  0
 32 36  1  0
 35 33  1  0
 33 34  2  0
 34 31  1  0
 35 36  2  0
 36 37  1  0
 37 38  2  0
 38 39  1  0
 39 40  2  0
 40 35  1  0
 17 41  1  0
 41  2  1  0
M  END
>  <Curated_InChIs>  (166) 
InChI=1S/C35H31N3O3/c1-41-35(40)30-16-14-28(22-33(30)37-34(39)32-17-15-27-7-4-5-9-31(27)36-32)26-12-10-24(11-13-26)18-20-38-21-19-25-6-2-3-8-29(25)23-38/h2-17,22H,18-21,23H2,1H3,(H,37,39)

>  <threshold>  (166) 
5

>  <pchembl>  (166) 
5.96

>  <Classification>  (166) 
1

>  <source>  (166) 
chembl_28

>  <SMILES>  (166) 
COC(=O)c1ccc(-c2ccc(CCN3CCc4ccccc4C3)cc2)cc1NC(=O)c1ccc2ccccc2n1

>  <InChIKey>  (166) 
XONXNNHMHOBHPW-UHFFFAOYSA-N

$$$$

     RDKit          2D

 30 33  0  0  0  0  0  0  0  0999 V2000
   10.8986  -19.6992    0.0000 C   0  0  0  0  0  0  0  0  0  0  0  0
   10.8974  -20.5188    0.0000 C   0  0  0  0  0  0  0  0  0  0  0  0
   11.6055  -20.9277    0.0000 C   0  0  0  0  0  0  0  0  0  0  0  0
   11.6037  -19.2904    0.0000 C   0  0  0  0  0  0  0  0  0  0  0  0
   12.3123  -19.6956    0.0000 C   0  0  0  0  0  0  0  0  0  0  0  0
   12.3131  -20.5146    0.0000 C   0  0  0  0  0  0  0  0  0  0  0  0
   13.0216  -20.9217    0.0000 N   0  0  0  0  0  0  0  0  0  0  0  0
   13.7299  -20.5109    0.0000 C   0  0  0  0  0  0  0  0  0  0  0  0
   13.7251  -19.6888    0.0000 N   0  0  0  0  0  0  0  0  0  0  0  0
   13.0160  -19.2854    0.0000 C   0  0  0  0  0  0  0  0  0  0  0  0
   13.0117  -18.4682    0.0000 N   0  0  0  0  0  0  0  0  0  0  0  0
   13.7172  -18.0559    0.0000 C   0  0  0  0  0  0  0  0  0  0  0  0
   14.4225  -18.4641    0.0000 C   0  0  0  0  0  0  0  0  0  0  0  0
   15.1276  -18.0524    0.0000 C   0  0  0  0  0  0  0  0  0  0  0  0
   15.1237  -17.2344    0.0000 C   0  0  0  0  0  0  0  0  0  0  0  0
   14.4088  -16.8297    0.0000 C   0  0  0  0  0  0  0  0  0  0  0  0
   13.7067  -17.2437    0.0000 C   0  0  0  0  0  0  0  0  0  0  0  0
   14.4356  -20.9126    0.0000 C   0  0  0  0  0  0  0  0  0  0  0  0
   14.4375  -21.7309    0.0000 C   0  0  0  0  0  0  0  0  0  0  0  0
   15.1459  -22.1367    0.0000 C   0  0  0  0  0  0  0  0  0  0  0  0
   15.8530  -21.7253    0.0000 C   0  0  0  0  0  0  0  0  0  0  0  0
   15.8472  -20.9039    0.0000 C   0  0  0  0  0  0  0  0  0  0  0  0
   15.1382  -20.5018    0.0000 C   0  0  0  0  0  0  0  0  0  0  0  0
   15.8287  -16.8211    0.0000 C   0  0  0  0  0  0  0  0  0  0  0  0
   16.5391  -17.2250    0.0000 O   0  0  0  0  0  0  0  0  0  0  0  0
   15.8232  -16.0039    0.0000 O   0  0  0  0  0  0  0  0  0  0  0  0
   17.2440  -16.8117    0.0000 C   0  0  0  0  0  0  0  0  0  0  0  0
   17.9545  -17.2156    0.0000 C   0  0  0  0  0  0  0  0  0  0  0  0
   17.2386  -15.9945    0.0000 C   0  0  0  0  0  0  0  0  0  0  0  0
   17.9493  -16.3975    0.0000 C   0  0  0  0  0  0  0  0  0  0  0  0
  1  2  2  0
  2  3  1  0
  3  6  2  0
  5  4  2  0
  4  1  1  0
  5  6  1  0
  6  7  1  0
  7  8  2  0
  8  9  1  0
  9 10  2  0
 10  5  1  0
 10 11  1  0
 11 12  1  0
 12 13  2  0
 13 14  1  0
 14 15  2  0
 15 16  1  0
 16 17  2  0
 17 12  1  0
 18 19  2  0
 19 20  1  0
 20 21  2  0
 21 22  1  0
 22 23  2  0
 23 18  1  0
  8 18  1  0
 15 24  1  0
 24 25  1  0
 24 26  2  0
 25 27  1  0
 27 28  1  0
 27 29  1  0
 27 30  1  0
M  END
>  <Curated_InChIs>  (167) 
InChI=1S/C25H23N3O2/c1-25(2,3)30-24(29)18-13-15-19(16-14-18)26-23-20-11-7-8-12-21(20)27-22(28-23)17-9-5-4-6-10-17/h4-16H,1-3H3,(H,26,27,28)

>  <threshold>  (167) 
5

>  <pchembl>  (167) 
5.25

>  <Classification>  (167) 
1

>  <source>  (167) 
chembl_28

>  <SMILES>  (167) 
CC(C)(C)OC(=O)c1ccc(Nc2nc(-c3ccccc3)nc3ccccc23)cc1

>  <InChIKey>  (167) 
XUZBSZZDWKAIED-UHFFFAOYSA-N

$$$$

     RDKit          2D

 90100  0  0  0  0  0  0  0  0999 V2000
    5.3635   -8.3982    0.0000 C   0  0  0  0  0  0  0  0  0  0  0  0
    6.0766   -7.9879    0.0000 C   0  0  0  0  0  0  0  0  0  0  0  0
    6.7901   -8.3976    0.0000 C   0  0  0  0  0  0  0  0  0  0  0  0
    6.7901   -9.2229    0.0000 C   0  0  0  0  0  0  0  0  0  0  0  0
    6.0791   -9.6325    0.0000 C   0  0  0  0  0  0  0  0  0  0  0  0
    5.3635   -9.2283    0.0000 C   0  0  0  0  0  0  0  0  0  0  0  0
    7.5033   -9.6336    0.0000 O   0  0  0  0  0  0  0  0  0  0  0  0
    8.2166   -9.2230    0.0000 C   0  0  0  0  0  0  0  0  0  0  0  0
    8.2166   -8.3976    0.0000 C   0  0  0  0  0  0  0  0  0  0  0  0
    7.5033   -7.9870    0.0000 C   0  0  0  0  0  0  0  0  0  0  0  0
    7.5033   -7.1642    0.0000 O   0  0  0  0  0  0  0  0  0  0  0  0
    8.9297   -7.9870    0.0000 O   0  0  0  0  0  0  0  0  0  0  0  0
    8.9297   -7.1642    0.0000 C   0  0  0  0  0  0  0  0  0  0  0  0
    9.6471   -6.7476    0.0000 C   0  0  0  0  0  0  0  0  0  0  0  0
    9.6475   -5.9267    0.0000 C   0  0  0  0  0  0  0  0  0  0  0  0
   10.3581   -5.5198    0.0000 C   0  0  0  0  0  0  0  0  0  0  0  0
   11.0716   -5.9322    0.0000 C   0  0  0  0  0  0  0  0  0  0  0  0
   11.0739   -6.7506    0.0000 C   0  0  0  0  0  0  0  0  0  0  0  0
   10.3605   -7.1658    0.0000 C   0  0  0  0  0  0  0  0  0  0  0  0
   11.7871   -7.1589    0.0000 C   0  0  0  0  0  0  0  0  0  0  0  0
   12.5045   -6.7506    0.0000 O   0  0  0  0  0  0  0  0  0  0  0  0
   13.2177   -7.1589    0.0000 C   0  0  0  0  0  0  0  0  0  0  0  0
   11.7871   -7.9840    0.0000 O   0  0  0  0  0  0  0  0  0  0  0  0
    8.9297   -9.6337    0.0000 C   0  0  0  0  0  0  0  0  0  0  0  0
    9.6474   -9.2232    0.0000 C   0  0  0  0  0  0  0  0  0  0  0  0
   10.3569   -9.6331    0.0000 C   0  0  0  0  0  0  0  0  0  0  0  0
   10.3569  -10.4588    0.0000 C   0  0  0  0  0  0  0  0  0  0  0  0
    9.6458  -10.8726    0.0000 C   0  0  0  0  0  0  0  0  0  0  0  0
    8.9297  -10.4641    0.0000 C   0  0  0  0  0  0  0  0  0  0  0  0
   11.0701  -10.8736    0.0000 O   0  0  0  0  0  0  0  0  0  0  0  0
   11.7875  -10.4588    0.0000 C   0  0  0  0  0  0  0  0  0  0  0  0
   12.5008  -10.8736    0.0000 C   0  0  0  0  0  0  0  0  0  0  0  0
   13.2139  -10.4588    0.0000 O   0  0  0  0  0  0  0  0  0  0  0  0
   13.9271  -10.8736    0.0000 C   0  0  0  0  0  0  0  0  0  0  0  0
   14.6445  -10.4588    0.0000 C   0  0  0  0  0  0  0  0  0  0  0  0
   15.3578  -10.8736    0.0000 N   0  0  0  0  0  0  0  0  0  0  0  0
   16.1098  -10.5357    0.0000 N   0  0  0  0  0  0  0  0  0  0  0  0
   16.6613  -11.1494    0.0000 N   0  0  0  0  0  0  0  0  0  0  0  0
   16.2509  -11.8621    0.0000 C   0  0  0  0  0  0  0  0  0  0  0  0
   15.4435  -11.6919    0.0000 C   0  0  0  0  0  0  0  0  0  0  0  0
   16.6616  -12.5795    0.0000 C   0  0  0  0  0  0  0  0  0  0  0  0
   17.4869  -12.5795    0.0000 N   0  0  0  0  0  0  0  0  0  0  0  0
   17.8976  -13.2928    0.0000 C   0  0  0  0  0  0  0  0  0  0  0  0
   18.7230  -13.2928    0.0000 C   0  0  0  0  0  0  0  0  0  0  0  0
   19.2076  -12.6222    0.0000 N   0  0  0  0  0  0  0  0  0  0  0  0
   19.9915  -12.8782    0.0000 N   0  0  0  0  0  0  0  0  0  0  0  0
   19.9915  -13.7030    0.0000 N   0  0  0  0  0  0  0  0  0  0  0  0
   19.2076  -13.9591    0.0000 C   0  0  0  0  0  0  0  0  0  0  0  0
   20.7047  -14.1178    0.0000 C   0  0  0  0  0  0  0  0  0  0  0  0
   21.4221  -13.7030    0.0000 C   0  0  0  0  0  0  0  0  0  0  0  0
   22.1352  -14.1178    0.0000 O   0  0  0  0  0  0  0  0  0  0  0  0
   22.8485  -13.7030    0.0000 C   0  0  0  0  0  0  0  0  0  0  0  0
   23.5617  -14.1178    0.0000 C   0  0  0  0  0  0  0  0  0  0  0  0
   24.2791  -13.7030    0.0000 O   0  0  0  0  0  0  0  0  0  0  0  0
   24.9923  -14.1178    0.0000 C   0  0  0  0  0  0  0  0  0  0  0  0
   25.7058  -13.7033    0.0000 C   0  0  0  0  0  0  0  0  0  0  0  0
   26.4153  -14.1173    0.0000 C   0  0  0  0  0  0  0  0  0  0  0  0
   26.4153  -14.9388    0.0000 C   0  0  0  0  0  0  0  0  0  0  0  0
   25.7083  -15.3527    0.0000 C   0  0  0  0  0  0  0  0  0  0  0  0
   24.9923  -14.9442    0.0000 C   0  0  0  0  0  0  0  0  0  0  0  0
   27.1327  -15.3536    0.0000 C   0  0  0  0  0  0  0  0  0  0  0  0
   27.8459  -14.9388    0.0000 C   0  0  0  0  0  0  0  0  0  0  0  0
   28.5591  -15.3536    0.0000 C   0  0  0  0  0  0  0  0  0  0  0  0
   28.5591  -16.1791    0.0000 C   0  0  0  0  0  0  0  0  0  0  0  0
   27.8459  -16.5896    0.0000 C   0  0  0  0  0  0  0  0  0  0  0  0
   27.1327  -16.1791    0.0000 O   0  0  0  0  0  0  0  0  0  0  0  0
   27.8462  -17.4200    0.0000 C   0  0  0  0  0  0  0  0  0  0  0  0
   28.5624  -17.8240    0.0000 C   0  0  0  0  0  0  0  0  0  0  0  0
   29.2733  -17.4142    0.0000 C   0  0  0  0  0  0  0  0  0  0  0  0
   29.2729  -16.5885    0.0000 C   0  0  0  0  0  0  0  0  0  0  0  0
   29.2764  -14.9388    0.0000 O   0  0  0  0  0  0  0  0  0  0  0  0
   27.8459  -14.1176    0.0000 O   0  0  0  0  0  0  0  0  0  0  0  0
   28.5591  -13.7028    0.0000 C   0  0  0  0  0  0  0  0  0  0  0  0
   28.5591  -12.8774    0.0000 C   0  0  0  0  0  0  0  0  0  0  0  0
   27.8460  -12.4665    0.0000 C   0  0  0  0  0  0  0  0  0  0  0  0
   27.8471  -11.6446    0.0000 C   0  0  0  0  0  0  0  0  0  0  0  0
   28.5606  -11.2297    0.0000 C   0  0  0  0  0  0  0  0  0  0  0  0
   29.2740  -11.6395    0.0000 C   0  0  0  0  0  0  0  0  0  0  0  0
   29.2767  -12.4643    0.0000 C   0  0  0  0  0  0  0  0  0  0  0  0
   27.1339  -11.2298    0.0000 C   0  0  0  0  0  0  0  0  0  0  0  0
   26.4165  -11.6446    0.0000 O   0  0  0  0  0  0  0  0  0  0  0  0
   27.1339  -10.4086    0.0000 O   0  0  0  0  0  0  0  0  0  0  0  0
   26.4165   -9.9938    0.0000 C   0  0  0  0  0  0  0  0  0  0  0  0
   17.8976  -11.8621    0.0000 C   0  0  0  0  0  0  0  0  0  0  0  0
   17.6839  -11.0644    0.0000 C   0  0  0  0  0  0  0  0  0  0  0  0
   16.8904  -10.8505    0.0000 C   0  0  0  0  0  0  0  0  0  0  0  0
   16.6746  -10.0601    0.0000 C   0  0  0  0  0  0  0  0  0  0  0  0
   17.2589   -9.4757    0.0000 C   0  0  0  0  0  0  0  0  0  0  0  0
   18.0516   -9.6857    0.0000 C   0  0  0  0  0  0  0  0  0  0  0  0
   18.2716  -10.4809    0.0000 C   0  0  0  0  0  0  0  0  0  0  0  0
  2  1  2  0
  3  2  1  0
  4  3  2  0
  5  4  1  0
  6  5  2  0
  1  6  1  0
  4  7  1  0
  7  8  1  0
  8  9  2  0
  9 10  1  0
  3 10  1  0
 10 11  2  0
  9 12  1  0
 12 13  1  0
 13 14  1  0
 15 14  2  0
 16 15  1  0
 17 16  2  0
 18 17  1  0
 19 18  2  0
 14 19  1  0
 18 20  1  0
 20 21  1  0
 21 22  1  0
 20 23  2  0
 24  8  1  0
 25 24  2  0
 26 25  1  0
 27 26  2  0
 28 27  1  0
 29 28  2  0
 24 29  1  0
 27 30  1  0
 30 31  1  0
 31 32  1  0
 32 33  1  0
 33 34  1  0
 34 35  1  0
 35 36  1  0
 37 36  1  0
 37 38  2  0
 38 39  1  0
 39 40  2  0
 40 36  1  0
 39 41  1  0
 41 42  1  0
 42 43  1  0
 43 44  1  0
 45 44  1  0
 45 46  2  0
 46 47  1  0
 47 48  1  0
 48 44  2  0
 47 49  1  0
 49 50  1  0
 50 51  1  0
 51 52  1  0
 52 53  1  0
 53 54  1  0
 54 55  1  0
 56 55  2  0
 57 56  1  0
 58 57  2  0
 59 58  1  0
 60 59  2  0
 55 60  1  0
 61 58  1  0
 61 62  2  0
 63 62  1  0
 64 63  1  0
 65 64  2  0
 66 65  1  0
 61 66  1  0
 65 67  1  0
 67 68  2  0
 68 69  1  0
 69 70  2  0
 64 70  1  0
 63 71  2  0
 62 72  1  0
 72 73  1  0
 73 74  1  0
 75 74  2  0
 76 75  1  0
 77 76  2  0
 78 77  1  0
 79 78  2  0
 74 79  1  0
 76 80  1  0
 80 81  2  0
 80 82  1  0
 82 83  1  0
 42 84  1  0
 84 85  1  0
 86 85  2  0
 87 86  1  0
 88 87  2  0
 89 88  1  0
 90 89  2  0
 85 90  1  0
M  END
>  <Curated_InChIs>  (168) 
InChI=1S/C69H63N7O14/c1-81-68(79)52-16-10-14-48(38-52)45-87-66-62(77)58-18-6-8-20-60(58)89-64(66)50-22-26-56(27-23-50)85-36-34-83-32-30-75-43-54(70-72-75)41-74(40-47-12-4-3-5-13-47)42-55-44-76(73-71-55)31-33-84-35-37-86-57-28-24-51(25-29-57)65-67(63(78)59-19-7-9-21-61(59)90-65)88-46-49-15-11-17-53(39-49)69(80)82-2/h3-29,38-39,43-44H,30-37,40-42,45-46H2,1-2H3

>  <threshold>  (168) 
5

>  <pchembl>  (168) 
7.84

>  <Classification>  (168) 
1

>  <source>  (168) 
chembl_28

>  <SMILES>  (168) 
COC(=O)c1cccc(COc2c(-c3ccc(OCCOCCn4cc(CN(Cc5ccccc5)Cc5cn(CCOCCOc6ccc(-c7oc8ccccc8c(=O)c7OCc7cccc(C(=O)OC)c7)cc6)nn5)nn4)cc3)oc3ccccc3c2=O)c1

>  <InChIKey>  (168) 
XWGYUGFXKPAXLC-UHFFFAOYSA-N

$$$$

     RDKit          2D

 33 36  0  0  0  0  0  0  0  0999 V2000
   17.9411   -4.1685    0.0000 C   0  0  0  0  0  0  0  0  0  0  0  0
   17.9452   -4.9939    0.0000 C   0  0  0  0  0  0  0  0  0  0  0  0
   18.6509   -3.7599    0.0000 C   0  0  0  0  0  0  0  0  0  0  0  0
   19.3567   -4.1685    0.0000 C   0  0  0  0  0  0  0  0  0  0  0  0
   19.3567   -4.9939    0.0000 C   0  0  0  0  0  0  0  0  0  0  0  0
   18.6509   -5.4025    0.0000 C   0  0  0  0  0  0  0  0  0  0  0  0
   17.1528   -3.9209    0.0000 O   0  0  0  0  0  0  0  0  0  0  0  0
   16.6699   -4.5895    0.0000 C   0  0  0  0  0  0  0  0  0  0  0  0
   17.1651   -5.2457    0.0000 O   0  0  0  0  0  0  0  0  0  0  0  0
   20.0647   -5.4021    0.0000 C   0  0  0  0  0  0  0  0  0  0  0  0
   20.7721   -4.9931    0.0000 N   0  0  0  0  0  0  0  0  0  0  0  0
   21.4801   -5.4013    0.0000 C   0  0  0  0  0  0  0  0  0  0  0  0
   22.1875   -4.9923    0.0000 C   0  0  0  0  0  0  0  0  0  0  0  0
   21.4806   -6.2185    0.0000 O   0  0  0  0  0  0  0  0  0  0  0  0
   22.8955   -5.4004    0.0000 O   0  0  0  0  0  0  0  0  0  0  0  0
   23.6030   -4.9914    0.0000 C   0  0  0  0  0  0  0  0  0  0  0  0
   24.3094   -5.4011    0.0000 C   0  0  0  0  0  0  0  0  0  0  0  0
   25.0164   -4.9928    0.0000 C   0  0  0  0  0  0  0  0  0  0  0  0
   25.0163   -4.1747    0.0000 C   0  0  0  0  0  0  0  0  0  0  0  0
   24.3034   -3.7667    0.0000 C   0  0  0  0  0  0  0  0  0  0  0  0
   23.5994   -4.1774    0.0000 C   0  0  0  0  0  0  0  0  0  0  0  0
   25.7233   -3.7648    0.0000 C   0  0  0  0  0  0  0  0  0  0  0  0
   26.4318   -4.1720    0.0000 C   0  0  0  0  0  0  0  0  0  0  0  0
   25.7217   -2.9476    0.0000 O   0  0  0  0  0  0  0  0  0  0  0  0
   27.1387   -3.7620    0.0000 C   0  0  0  0  0  0  0  0  0  0  0  0
   27.8472   -4.1693    0.0000 C   0  0  0  0  0  0  0  0  0  0  0  0
   27.8452   -4.9868    0.0000 C   0  0  0  0  0  0  0  0  0  0  0  0
   28.5529   -5.3939    0.0000 C   0  0  0  0  0  0  0  0  0  0  0  0
   29.2608   -4.9839    0.0000 C   0  0  0  0  0  0  0  0  0  0  0  0
   29.2566   -4.1625    0.0000 C   0  0  0  0  0  0  0  0  0  0  0  0
   28.5484   -3.7590    0.0000 C   0  0  0  0  0  0  0  0  0  0  0  0
   29.9698   -5.3902    0.0000 O   0  0  0  0  0  0  0  0  0  0  0  0
   29.9725   -6.2074    0.0000 C   0  0  0  0  0  0  0  0  0  0  0  0
  2  1  1  0
  3  1  2  0
  4  3  1  0
  5  4  2  0
  6  2  2  0
  7  1  1  0
  8  7  1  0
  9  2  1  0
  8  9  1  0
  6  5  1  0
  5 10  1  0
 10 11  1  0
 11 12  1  0
 12 13  1  0
 12 14  2  0
 13 15  1  0
 15 16  1  0
 16 17  2  0
 17 18  1  0
 18 19  2  0
 19 20  1  0
 20 21  2  0
 21 16  1  0
 19 22  1  0
 22 23  1  0
 22 24  2  0
 23 25  2  0
 25 26  1  0
 26 27  2  0
 27 28  1  0
 28 29  2  0
 29 30  1  0
 30 31  2  0
 31 26  1  0
 29 32  1  0
 32 33  1  0
M  END
>  <Curated_InChIs>  (169) 
InChI=1S/C26H23NO6/c1-30-21-8-2-18(3-9-21)4-12-23(28)20-6-10-22(11-7-20)31-16-26(29)27-15-19-5-13-24-25(14-19)33-17-32-24/h2-14H,15-17H2,1H3,(H,27,29)

>  <threshold>  (169) 
5

>  <pchembl>  (169) 
5.0

>  <Classification>  (169) 
1

>  <source>  (169) 
chembl_28

>  <SMILES>  (169) 
COc1ccc(/C=C/C(=O)c2ccc(OCC(=O)NCc3ccc4c(c3)OCO4)cc2)cc1

>  <InChIKey>  (169) 
YDGQKJNPSWVLTQ-UUILKARUSA-N

$$$$

     RDKit          2D

 25 28  0  0  0  0  0  0  0  0999 V2000
    0.9272   -3.6361    0.0000 C   0  0  0  0  0  0  0  0  0  0  0  0
    0.9261   -4.4597    0.0000 C   0  0  0  0  0  0  0  0  0  0  0  0
    1.6341   -4.8687    0.0000 C   0  0  0  0  0  0  0  0  0  0  0  0
    1.6323   -3.2231    0.0000 C   0  0  0  0  0  0  0  0  0  0  0  0
    2.3451   -3.6325    0.0000 C   0  0  0  0  0  0  0  0  0  0  0  0
    2.3458   -4.4556    0.0000 C   0  0  0  0  0  0  0  0  0  0  0  0
    3.0585   -4.8627    0.0000 N   0  0  0  0  0  0  0  0  0  0  0  0
    3.7709   -4.4518    0.0000 C   0  0  0  0  0  0  0  0  0  0  0  0
    3.7661   -3.6256    0.0000 C   0  0  0  0  0  0  0  0  0  0  0  0
    3.0529   -3.2181    0.0000 C   0  0  0  0  0  0  0  0  0  0  0  0
    3.0486   -2.3968    0.0000 N   0  0  0  0  0  0  0  0  0  0  0  0
    3.7582   -1.9844    0.0000 C   0  0  0  0  0  0  0  0  0  0  0  0
    4.4676   -2.3927    0.0000 C   0  0  0  0  0  0  0  0  0  0  0  0
    5.1768   -1.9810    0.0000 C   0  0  0  0  0  0  0  0  0  0  0  0
    5.1729   -1.1588    0.0000 C   0  0  0  0  0  0  0  0  0  0  0  0
    4.4540   -0.7500    0.0000 C   0  0  0  0  0  0  0  0  0  0  0  0
    3.7477   -1.1682    0.0000 C   0  0  0  0  0  0  0  0  0  0  0  0
    4.4807   -4.8536    0.0000 C   0  0  0  0  0  0  0  0  0  0  0  0
    4.4826   -5.6760    0.0000 C   0  0  0  0  0  0  0  0  0  0  0  0
    5.1952   -6.0859    0.0000 C   0  0  0  0  0  0  0  0  0  0  0  0
    5.9064   -5.6704    0.0000 C   0  0  0  0  0  0  0  0  0  0  0  0
    5.9006   -4.8449    0.0000 C   0  0  0  0  0  0  0  0  0  0  0  0
    5.1874   -4.4428    0.0000 C   0  0  0  0  0  0  0  0  0  0  0  0
    5.8822   -0.7432    0.0000 C   0  0  0  0  0  0  0  0  0  0  0  0
    6.5872   -0.3258    0.0000 N   0  0  0  0  0  0  0  0  0  0  0  0
  1  2  2  0
  2  3  1  0
  3  6  2  0
  5  4  2  0
  4  1  1  0
  5  6  1  0
  6  7  1  0
  7  8  2  0
  8  9  1  0
  9 10  2  0
 10  5  1  0
 10 11  1  0
 11 12  1  0
 12 13  2  0
 13 14  1  0
 14 15  2  0
 15 16  1  0
 16 17  2  0
 17 12  1  0
 18 19  2  0
 19 20  1  0
 20 21  2  0
 21 22  1  0
 22 23  2  0
 23 18  1  0
  8 18  1  0
 24 25  3  0
 15 24  1  0
M  END
>  <Curated_InChIs>  (170) 
InChI=1S/C22H15N3/c23-15-16-10-12-18(13-11-16)24-22-14-21(17-6-2-1-3-7-17)25-20-9-5-4-8-19(20)22/h1-14H,(H,24,25)

>  <threshold>  (170) 
5

>  <pchembl>  (170) 
6.07

>  <Classification>  (170) 
1

>  <source>  (170) 
chembl_28

>  <SMILES>  (170) 
N#Cc1ccc(Nc2cc(-c3ccccc3)nc3ccccc23)cc1

>  <InChIKey>  (170) 
YDIZFRBIKCDJDU-UHFFFAOYSA-N

$$$$

     RDKit          2D

 24 27  0  0  0  0  0  0  0  0999 V2000
   18.0139  -12.3404    0.0000 C   0  0  0  0  0  0  0  0  0  0  0  0
   18.0128  -13.1599    0.0000 C   0  0  0  0  0  0  0  0  0  0  0  0
   18.7208  -13.5689    0.0000 C   0  0  0  0  0  0  0  0  0  0  0  0
   18.7190  -11.9315    0.0000 C   0  0  0  0  0  0  0  0  0  0  0  0
   19.4277  -12.3368    0.0000 C   0  0  0  0  0  0  0  0  0  0  0  0
   19.4284  -13.1558    0.0000 C   0  0  0  0  0  0  0  0  0  0  0  0
   20.1370  -13.5629    0.0000 N   0  0  0  0  0  0  0  0  0  0  0  0
   20.8452  -13.1520    0.0000 C   0  0  0  0  0  0  0  0  0  0  0  0
   20.8405  -12.3299    0.0000 N   0  0  0  0  0  0  0  0  0  0  0  0
   20.1314  -11.9265    0.0000 C   0  0  0  0  0  0  0  0  0  0  0  0
   21.5587  -13.5550    0.0000 C   0  0  0  0  0  0  0  0  0  0  0  0
   21.6473  -14.3674    0.0000 C   0  0  0  0  0  0  0  0  0  0  0  0
   22.4473  -14.5342    0.0000 C   0  0  0  0  0  0  0  0  0  0  0  0
   22.8531  -13.8248    0.0000 C   0  0  0  0  0  0  0  0  0  0  0  0
   22.3039  -13.2198    0.0000 N   0  0  0  0  0  0  0  0  0  0  0  0
   20.1270  -11.1094    0.0000 N   0  0  0  0  0  0  0  0  0  0  0  0
   20.8326  -10.6970    0.0000 C   0  0  0  0  0  0  0  0  0  0  0  0
   21.5379  -11.1052    0.0000 C   0  0  0  0  0  0  0  0  0  0  0  0
   22.2429  -10.6936    0.0000 C   0  0  0  0  0  0  0  0  0  0  0  0
   22.2390   -9.8755    0.0000 C   0  0  0  0  0  0  0  0  0  0  0  0
   21.5242   -9.4709    0.0000 C   0  0  0  0  0  0  0  0  0  0  0  0
   20.8221   -9.8849    0.0000 C   0  0  0  0  0  0  0  0  0  0  0  0
   22.9440   -9.4622    0.0000 O   0  0  0  0  0  0  0  0  0  0  0  0
   23.6544   -9.8661    0.0000 C   0  0  0  0  0  0  0  0  0  0  0  0
  1  2  2  0
  2  3  1  0
  3  6  2  0
  5  4  2  0
  4  1  1  0
  5  6  1  0
  6  7  1  0
  7  8  2  0
  8  9  1  0
  9 10  2  0
 10  5  1  0
 11 12  2  0
 12 13  1  0
 13 14  2  0
 14 15  1  0
 15 11  1  0
  8 11  1  0
 10 16  1  0
 16 17  1  0
 17 18  2  0
 18 19  1  0
 19 20  2  0
 20 21  1  0
 21 22  2  0
 22 17  1  0
 20 23  1  0
 23 24  1  0
M  END
>  <Curated_InChIs>  (171) 
InChI=1S/C19H16N4O/c1-24-14-10-8-13(9-11-14)21-18-15-5-2-3-6-16(15)22-19(23-18)17-7-4-12-20-17/h2-12,20H,1H3,(H,21,22,23)

>  <threshold>  (171) 
5

>  <pchembl>  (171) 
5.59

>  <Classification>  (171) 
1

>  <source>  (171) 
chembl_28

>  <SMILES>  (171) 
COc1ccc(Nc2nc(-c3ccc[nH]3)nc3ccccc23)cc1

>  <InChIKey>  (171) 
YJHNRAMBIDBLJQ-UHFFFAOYSA-N

$$$$

     RDKit          2D

 26 29  0  0  0  0  0  0  0  0999 V2000
   12.8879   -6.9966    0.0000 C   0  0  0  0  0  0  0  0  0  0  0  0
   12.1788   -7.4052    0.0000 N   0  0  0  0  0  0  0  0  0  0  0  0
   11.4697   -6.9966    0.0000 C   0  0  0  0  0  0  0  0  0  0  0  0
   11.4697   -6.1794    0.0000 C   0  0  0  0  0  0  0  0  0  0  0  0
   12.1788   -5.7708    0.0000 C   0  0  0  0  0  0  0  0  0  0  0  0
   12.8879   -6.1794    0.0000 N   0  0  0  0  0  0  0  0  0  0  0  0
   10.7606   -5.7708    0.0000 C   0  0  0  0  0  0  0  0  0  0  0  0
   10.0557   -6.1794    0.0000 C   0  0  0  0  0  0  0  0  0  0  0  0
   10.0557   -6.9966    0.0000 C   0  0  0  0  0  0  0  0  0  0  0  0
   10.7606   -7.4052    0.0000 N   0  0  0  0  0  0  0  0  0  0  0  0
   12.1788   -4.9536    0.0000 N   0  0  0  0  0  0  0  0  0  0  0  0
   13.5929   -7.4052    0.0000 C   0  0  0  0  0  0  0  0  0  0  0  0
   13.5929   -8.2224    0.0000 C   0  0  0  0  0  0  0  0  0  0  0  0
   14.3020   -8.6309    0.0000 C   0  0  0  0  0  0  0  0  0  0  0  0
   15.0069   -8.2224    0.0000 C   0  0  0  0  0  0  0  0  0  0  0  0
   15.0069   -7.4052    0.0000 C   0  0  0  0  0  0  0  0  0  0  0  0
   14.3020   -6.9966    0.0000 C   0  0  0  0  0  0  0  0  0  0  0  0
   14.3020   -9.4481    0.0000 O   0  0  0  0  0  0  0  0  0  0  0  0
   15.0069   -9.8567    0.0000 C   0  0  0  0  0  0  0  0  0  0  0  0
   12.8879   -4.5450    0.0000 C   0  0  0  0  0  0  0  0  0  0  0  0
   13.5929   -4.9536    0.0000 C   0  0  0  0  0  0  0  0  0  0  0  0
   14.3020   -4.5450    0.0000 C   0  0  0  0  0  0  0  0  0  0  0  0
   14.3020   -3.7278    0.0000 C   0  0  0  0  0  0  0  0  0  0  0  0
   13.5929   -3.3192    0.0000 C   0  0  0  0  0  0  0  0  0  0  0  0
   12.8879   -3.7278    0.0000 C   0  0  0  0  0  0  0  0  0  0  0  0
   15.0069   -4.9536    0.0000 Br  0  0  0  0  0  0  0  0  0  0  0  0
  1  2  2  0
  2  3  1  0
  3  4  2  0
  4  5  1  0
  5  6  2  0
  1  6  1  0
  7  8  2  0
  8  9  1  0
  9 10  2  0
  3 10  1  0
  4  7  1  0
  5 11  1  0
 12 13  2  0
 13 14  1  0
 14 15  2  0
 15 16  1  0
 16 17  2  0
 12 17  1  0
 18 19  1  0
 14 18  1  0
  1 12  1  0
 20 21  2  0
 21 22  1  0
 22 23  2  0
 23 24  1  0
 24 25  2  0
 20 25  1  0
 22 26  1  0
 11 20  1  0
M  END
>  <Curated_InChIs>  (172) 
InChI=1S/C20H15BrN4O/c1-26-16-8-2-5-13(11-16)18-24-19-17(9-4-10-22-19)20(25-18)23-15-7-3-6-14(21)12-15/h2-12H,1H3,(H,22,23,24,25)

>  <threshold>  (172) 
5

>  <pchembl>  (172) 
5.82

>  <Classification>  (172) 
1

>  <source>  (172) 
chembl_28

>  <SMILES>  (172) 
COc1cccc(-c2nc(Nc3cccc(Br)c3)c3cccnc3n2)c1

>  <InChIKey>  (172) 
YJOGXNYTXVVLPR-UHFFFAOYSA-N

$$$$

     RDKit          2D

 25 26  0  0  0  0  0  0  0  0999 V2000
    7.7206  -10.7819    0.0000 C   0  0  0  0  0  0  0  0  0  0  0  0
    8.4370  -10.3685    0.0000 C   0  0  0  0  0  0  0  0  0  0  0  0
    8.4341   -9.5380    0.0000 C   0  0  0  0  0  0  0  0  0  0  0  0
    7.7188   -9.1289    0.0000 C   0  0  0  0  0  0  0  0  0  0  0  0
    9.1471   -9.1228    0.0000 C   0  0  0  0  0  0  0  0  0  0  0  0
    9.8631   -9.5326    0.0000 C   0  0  0  0  0  0  0  0  0  0  0  0
    9.1439   -8.2978    0.0000 O   0  0  0  0  0  0  0  0  0  0  0  0
   10.5760   -9.1174    0.0000 C   0  0  0  0  0  0  0  0  0  0  0  0
   11.2920   -9.5272    0.0000 C   0  0  0  0  0  0  0  0  0  0  0  0
   11.2920  -10.3511    0.0000 C   0  0  0  0  0  0  0  0  0  0  0  0
   12.0072  -10.7608    0.0000 C   0  0  0  0  0  0  0  0  0  0  0  0
   11.9995   -9.1103    0.0000 C   0  0  0  0  0  0  0  0  0  0  0  0
   12.7195   -9.5132    0.0000 C   0  0  0  0  0  0  0  0  0  0  0  0
   12.7208  -10.3413    0.0000 C   0  0  0  0  0  0  0  0  0  0  0  0
   13.4333  -10.7522    0.0000 O   0  0  0  0  0  0  0  0  0  0  0  0
   13.4337  -11.5772    0.0000 C   0  0  0  0  0  0  0  0  0  0  0  0
    7.0032  -10.3662    0.0000 C   0  0  0  0  0  0  0  0  0  0  0  0
    7.0070   -9.5447    0.0000 C   0  0  0  0  0  0  0  0  0  0  0  0
   13.4308   -9.0953    0.0000 O   0  0  0  0  0  0  0  0  0  0  0  0
   14.1484   -9.5025    0.0000 C   0  0  0  0  0  0  0  0  0  0  0  0
   12.0118  -11.5858    0.0000 O   0  0  0  0  0  0  0  0  0  0  0  0
   11.2996  -12.0023    0.0000 C   0  0  0  0  0  0  0  0  0  0  0  0
    6.2924   -9.1324    0.0000 O   0  0  0  0  0  0  0  0  0  0  0  0
    6.2922   -8.3074    0.0000 C   0  0  0  0  0  0  0  0  0  0  0  0
    6.2875  -10.7765    0.0000 O   0  0  0  0  0  0  0  0  0  0  0  0
  3  5  1  0
 13 12  2  0
 12  9  1  0
 13 14  1  0
 17  1  2  0
  5  6  1  0
  2  3  2  0
 14 15  1  0
  5  7  2  0
 15 16  1  0
 17 18  1  0
  6  8  2  0
  3  4  1  0
 13 19  1  0
  8  9  1  0
 19 20  1  0
  4 18  2  0
 11 21  1  0
  9 10  2  0
 21 22  1  0
  1  2  1  0
 18 23  1  0
 10 11  1  0
 23 24  1  0
 11 14  2  0
 17 25  1  0
M  END
>  <Curated_InChIs>  (173) 
InChI=1S/C19H20O6/c1-22-16-11-13(6-8-15(16)21)14(20)7-5-12-9-17(23-2)19(25-4)18(10-12)24-3/h5-11,21H,1-4H3

>  <threshold>  (173) 
5

>  <pchembl>  (173) 
5.71

>  <Classification>  (173) 
1

>  <source>  (173) 
chembl_28

>  <SMILES>  (173) 
COc1cc(C(=O)/C=C/c2cc(OC)c(OC)c(OC)c2)ccc1O

>  <InChIKey>  (173) 
YJYXUHISYCFAFJ-FNORWQNLSA-N

$$$$

     RDKit          2D

 27 30  0  0  0  0  0  0  0  0999 V2000
   -0.5500   -2.1292    0.0000 C   0  0  0  0  0  0  0  0  0  0  0  0
   -0.0333   -2.4292    0.0000 N   0  0  0  0  0  0  0  0  0  0  0  0
   -0.0333   -3.0375    0.0000 C   0  0  0  0  0  0  0  0  0  0  0  0
   -0.5500   -3.3375    0.0000 N   0  0  0  0  0  0  0  0  0  0  0  0
   -1.0708   -2.4375    0.0000 C   0  0  0  0  0  0  0  0  0  0  0  0
   -1.0708   -3.0375    0.0000 C   0  0  0  0  0  0  0  0  0  0  0  0
   -0.5583   -1.5292    0.0000 N   0  0  0  0  0  0  0  0  0  0  0  0
    1.5167   -0.3250    0.0000 C   0  0  0  0  0  0  0  0  0  0  0  0
    1.0000   -0.6292    0.0000 C   0  0  0  0  0  0  0  0  0  0  0  0
    0.4917   -3.3375    0.0000 C   0  0  0  0  0  0  0  0  0  0  0  0
    1.5125    0.2750    0.0000 O   0  0  0  0  0  0  0  0  0  0  0  0
   -0.0333   -1.2292    0.0000 C   0  0  0  0  0  0  0  0  0  0  0  0
    1.0042   -1.2292    0.0000 C   0  0  0  0  0  0  0  0  0  0  0  0
    0.4750   -0.3292    0.0000 C   0  0  0  0  0  0  0  0  0  0  0  0
    2.0375   -0.6167    0.0000 O   0  0  0  0  0  0  0  0  0  0  0  0
   -0.0458   -0.6375    0.0000 C   0  0  0  0  0  0  0  0  0  0  0  0
    0.4792   -1.5292    0.0000 C   0  0  0  0  0  0  0  0  0  0  0  0
   -1.5833   -2.1375    0.0000 C   0  0  0  0  0  0  0  0  0  0  0  0
   -1.5833   -3.3375    0.0000 C   0  0  0  0  0  0  0  0  0  0  0  0
    0.4917   -3.9375    0.0000 C   0  0  0  0  0  0  0  0  0  0  0  0
    1.0042   -3.0292    0.0000 C   0  0  0  0  0  0  0  0  0  0  0  0
    2.0417   -1.2167    0.0000 C   0  0  0  0  0  0  0  0  0  0  0  0
   -2.1083   -2.4292    0.0000 C   0  0  0  0  0  0  0  0  0  0  0  0
   -2.1083   -3.0375    0.0000 C   0  0  0  0  0  0  0  0  0  0  0  0
    1.0125   -4.2292    0.0000 C   0  0  0  0  0  0  0  0  0  0  0  0
    1.5292   -3.3292    0.0000 C   0  0  0  0  0  0  0  0  0  0  0  0
    1.5292   -3.9292    0.0000 C   0  0  0  0  0  0  0  0  0  0  0  0
  2  1  2  0
  3  2  1  0
  4  6  1  0
  5  1  1  0
  6  5  2  0
  7  1  1  0
  8  9  1  0
  9 13  2  0
 10  3  1  0
 11  8  2  0
 12  7  1  0
 13 17  1  0
 14 16  2  0
 15  8  1  0
 16 12  1  0
 17 12  2  0
 18  5  1  0
 19  6  1  0
 20 10  2  0
 21 10  1  0
 22 15  1  0
 23 18  2  0
 24 23  1  0
 25 20  1  0
 26 21  2  0
 27 26  1  0
  4  3  2  0
 14  9  1  0
 19 24  2  0
 25 27  2  0
M  END
>  <Curated_InChIs>  (174) 
InChI=1S/C22H17N3O2/c1-27-22(26)16-11-13-17(14-12-16)23-21-18-9-5-6-10-19(18)24-20(25-21)15-7-3-2-4-8-15/h2-14H,1H3,(H,23,24,25)

>  <threshold>  (174) 
5

>  <pchembl>  (174) 
6.03

>  <Classification>  (174) 
1

>  <source>  (174) 
chembl_28

>  <SMILES>  (174) 
COC(=O)c1ccc(Nc2nc(-c3ccccc3)nc3ccccc23)cc1

>  <InChIKey>  (174) 
YNJLEXNLBZQNTP-UHFFFAOYSA-N

$$$$

     RDKit          2D

 31 34  0  0  0  0  0  0  0  0999 V2000
   -2.5835   -5.2544    0.0000 C   0  0  0  0  0  0  0  0  0  0  0  0
   -2.5870   -3.7544    0.0000 C   0  0  0  0  0  0  0  0  0  0  0  0
   -3.8880   -3.0076    0.0000 C   0  0  0  0  0  0  0  0  0  0  0  0
   -5.1852   -3.7608    0.0000 C   0  0  0  0  0  0  0  0  0  0  0  0
   -5.1815   -5.2608    0.0000 C   0  0  0  0  0  0  0  0  0  0  0  0
   -3.8807   -6.0076    0.0000 C   0  0  0  0  0  0  0  0  0  0  0  0
   -1.2907   -2.9981    0.0000 N   0  0  0  0  0  0  0  0  0  0  0  0
   -1.2964   -1.4973    0.0000 C   0  0  0  0  0  0  0  0  0  0  0  0
   -1.2964    1.4973    0.0000 N   0  0  0  0  0  0  0  0  0  0  0  0
   -2.6111    0.7486    0.0000 C   0  0  0  0  0  0  0  0  0  0  0  0
   -2.6111   -0.7486    0.0000 N   0  0  0  0  0  0  0  0  0  0  0  0
    0.0000    0.7486    0.0000 C   0  0  0  0  0  0  0  0  0  0  0  0
    0.0000   -0.7486    0.0000 C   0  0  0  0  0  0  0  0  0  0  0  0
    1.2964   -1.4973    0.0000 C   0  0  0  0  0  0  0  0  0  0  0  0
    2.5929   -0.7486    0.0000 C   0  0  0  0  0  0  0  0  0  0  0  0
    2.5929    0.7486    0.0000 C   0  0  0  0  0  0  0  0  0  0  0  0
    1.2964    1.4973    0.0000 C   0  0  0  0  0  0  0  0  0  0  0  0
   -6.4779   -6.0170    0.0000 C   0  0  0  0  0  0  0  0  0  0  0  0
   -6.4721   -7.5179    0.0000 C   0  0  0  0  0  0  0  0  0  0  0  0
   -7.5196   -5.4214    0.0000 O   0  0  0  0  0  0  0  0  0  0  0  0
   -7.7685   -8.2741    0.0000 C   0  0  0  0  0  0  0  0  0  0  0  0
   -7.7626   -9.7749    0.0000 C   0  0  0  0  0  0  0  0  0  0  0  0
   -9.0572  -10.5327    0.0000 C   0  0  0  0  0  0  0  0  0  0  0  0
   -9.0484  -12.0326    0.0000 C   0  0  0  0  0  0  0  0  0  0  0  0
   -7.7449  -12.7750    0.0000 C   0  0  0  0  0  0  0  0  0  0  0  0
   -6.4503  -12.0173    0.0000 C   0  0  0  0  0  0  0  0  0  0  0  0
   -6.4592  -10.5173    0.0000 C   0  0  0  0  0  0  0  0  0  0  0  0
   -7.7330  -14.2758    0.0000 O   0  0  0  0  0  0  0  0  0  0  0  0
   -6.6894  -14.8681    0.0000 C   0  0  0  0  0  0  0  0  0  0  0  0
  -10.3452  -12.7881    0.0000 O   0  0  0  0  0  0  0  0  0  0  0  0
  -11.3871  -12.1927    0.0000 C   0  0  0  0  0  0  0  0  0  0  0  0
  1  2  2  0
  2  3  1  0
  3  4  2  0
  4  5  1  0
  5  6  2  0
  6  1  1  0
  2  7  1  0
  7  8  1  0
  8 13  2  0
 12  9  2  0
  9 10  1  0
 10 11  2  0
 11  8  1  0
 12 13  1  0
 13 14  1  0
 14 15  2  0
 15 16  1  0
 16 17  2  0
 17 12  1  0
  5 18  1  0
 18 19  1  0
 18 20  2  0
 19 21  2  0
 21 22  1  0
 22 23  2  0
 23 24  1  0
 24 25  2  0
 25 26  1  0
 26 27  2  0
 27 22  1  0
 25 28  1  0
 28 29  1  0
 24 30  1  0
 30 31  1  0
M  END
>  <Curated_InChIs>  (175) 
InChI=1S/C25H21N3O3/c1-30-23-14-8-17(15-24(23)31-2)7-13-22(29)18-9-11-19(12-10-18)28-25-20-5-3-4-6-21(20)26-16-27-25/h3-16H,1-2H3,(H,26,27,28)

>  <threshold>  (175) 
5

>  <pchembl>  (175) 
6.08

>  <Classification>  (175) 
1

>  <source>  (175) 
chembl_28

>  <SMILES>  (175) 
COc1ccc(/C=C/C(=O)c2ccc(Nc3ncnc4ccccc34)cc2)cc1OC

>  <InChIKey>  (175) 
YRPMJULDYABSPQ-NTUHNPAUSA-N

$$$$

     RDKit          2D

 27 30  0  0  0  0  0  0  0  0999 V2000
   25.4842  -10.8711    0.0000 C   0  0  0  0  0  0  0  0  0  0  0  0
   25.4831  -11.6906    0.0000 C   0  0  0  0  0  0  0  0  0  0  0  0
   26.1911  -12.0996    0.0000 C   0  0  0  0  0  0  0  0  0  0  0  0
   26.1893  -10.4622    0.0000 C   0  0  0  0  0  0  0  0  0  0  0  0
   26.8980  -10.8675    0.0000 C   0  0  0  0  0  0  0  0  0  0  0  0
   26.8987  -11.6865    0.0000 C   0  0  0  0  0  0  0  0  0  0  0  0
   27.6072  -12.0936    0.0000 N   0  0  0  0  0  0  0  0  0  0  0  0
   28.3155  -11.6827    0.0000 C   0  0  0  0  0  0  0  0  0  0  0  0
   28.3108  -10.8606    0.0000 N   0  0  0  0  0  0  0  0  0  0  0  0
   27.6017  -10.4573    0.0000 C   0  0  0  0  0  0  0  0  0  0  0  0
   27.5973   -9.6401    0.0000 N   0  0  0  0  0  0  0  0  0  0  0  0
   28.3029   -9.2277    0.0000 C   0  0  0  0  0  0  0  0  0  0  0  0
   29.0081   -9.6359    0.0000 C   0  0  0  0  0  0  0  0  0  0  0  0
   29.7132   -9.2243    0.0000 C   0  0  0  0  0  0  0  0  0  0  0  0
   29.7093   -8.4062    0.0000 C   0  0  0  0  0  0  0  0  0  0  0  0
   28.9945   -8.0016    0.0000 C   0  0  0  0  0  0  0  0  0  0  0  0
   28.2923   -8.4156    0.0000 C   0  0  0  0  0  0  0  0  0  0  0  0
   29.0212  -12.0845    0.0000 C   0  0  0  0  0  0  0  0  0  0  0  0
   29.0231  -12.9028    0.0000 C   0  0  0  0  0  0  0  0  0  0  0  0
   29.7315  -13.3086    0.0000 C   0  0  0  0  0  0  0  0  0  0  0  0
   30.4386  -12.8972    0.0000 C   0  0  0  0  0  0  0  0  0  0  0  0
   30.4328  -12.0758    0.0000 C   0  0  0  0  0  0  0  0  0  0  0  0
   29.7238  -11.6737    0.0000 C   0  0  0  0  0  0  0  0  0  0  0  0
   30.4229   -9.6295    0.0000 C   0  0  0  0  0  0  0  0  0  0  0  0
   30.4268  -10.4467    0.0000 C   0  0  0  0  0  0  0  0  0  0  0  0
   31.1286   -9.2175    0.0000 C   0  0  0  0  0  0  0  0  0  0  0  0
   31.1276  -10.0374    0.0000 C   0  0  0  0  0  0  0  0  0  0  0  0
  1  2  2  0
  2  3  1  0
  3  6  2  0
  5  4  2  0
  4  1  1  0
  5  6  1  0
  6  7  1  0
  7  8  2  0
  8  9  1  0
  9 10  2  0
 10  5  1  0
 10 11  1  0
 11 12  1  0
 12 13  2  0
 13 14  1  0
 14 15  2  0
 15 16  1  0
 16 17  2  0
 17 12  1  0
 18 19  2  0
 19 20  1  0
 20 21  2  0
 21 22  1  0
 22 23  2  0
 23 18  1  0
  8 18  1  0
 14 24  1  0
 24 25  1  0
 24 26  1  0
 24 27  1  0
M  END
>  <Curated_InChIs>  (176) 
InChI=1S/C24H23N3/c1-24(2,3)18-12-9-13-19(16-18)25-23-20-14-7-8-15-21(20)26-22(27-23)17-10-5-4-6-11-17/h4-16H,1-3H3,(H,25,26,27)

>  <threshold>  (176) 
5

>  <pchembl>  (176) 
5.97

>  <Classification>  (176) 
1

>  <source>  (176) 
chembl_28

>  <SMILES>  (176) 
CC(C)(C)c1cccc(Nc2nc(-c3ccccc3)nc3ccccc23)c1

>  <InChIKey>  (176) 
YSNUUAYHDXLGOA-UHFFFAOYSA-N

$$$$

     RDKit          2D

 30 34  0  0  0  0  0  0  0  0999 V2000
   35.0275   -6.1481    0.0000 C   0  0  0  0  0  0  0  0  0  0  0  0
   35.7372   -5.7387    0.0000 C   0  0  0  0  0  0  0  0  0  0  0  0
   35.7343   -4.9160    0.0000 C   0  0  0  0  0  0  0  0  0  0  0  0
   35.0257   -4.5108    0.0000 C   0  0  0  0  0  0  0  0  0  0  0  0
   34.3195   -5.7392    0.0000 C   0  0  0  0  0  0  0  0  0  0  0  0
   34.3207   -4.9226    0.0000 C   0  0  0  0  0  0  0  0  0  0  0  0
   33.5445   -4.6691    0.0000 S   0  0  0  0  0  0  0  0  0  0  0  0
   33.0635   -5.3290    0.0000 C   0  0  0  0  0  0  0  0  0  0  0  0
   33.5425   -5.9902    0.0000 N   0  0  0  0  0  0  0  0  0  0  0  0
   36.4455   -6.1462    0.0000 N   0  0  0  0  0  0  0  0  0  0  0  0
   37.1526   -5.7365    0.0000 C   0  0  0  0  0  0  0  0  0  0  0  0
   37.8609   -6.1439    0.0000 C   0  0  0  0  0  0  0  0  0  0  0  0
   37.1513   -4.9193    0.0000 O   0  0  0  0  0  0  0  0  0  0  0  0
   37.8582   -6.9592    0.0000 C   0  0  0  0  0  0  0  0  0  0  0  0
   38.5625   -7.3666    0.0000 C   0  0  0  0  0  0  0  0  0  0  0  0
   39.2720   -6.9604    0.0000 C   0  0  0  0  0  0  0  0  0  0  0  0
   39.2726   -6.1422    0.0000 N   0  0  0  0  0  0  0  0  0  0  0  0
   38.5639   -5.7303    0.0000 C   0  0  0  0  0  0  0  0  0  0  0  0
   39.9811   -5.7349    0.0000 C   0  0  0  0  0  0  0  0  0  0  0  0
   40.6854   -6.1472    0.0000 C   0  0  0  0  0  0  0  0  0  0  0  0
   41.3933   -5.7406    0.0000 C   0  0  0  0  0  0  0  0  0  0  0  0
   41.3953   -4.9225    0.0000 N   0  0  0  0  0  0  0  0  0  0  0  0
   40.6833   -4.5128    0.0000 C   0  0  0  0  0  0  0  0  0  0  0  0
   39.9783   -4.9217    0.0000 N   0  0  0  0  0  0  0  0  0  0  0  0
   42.1012   -6.1481    0.0000 N   0  0  0  0  0  0  0  0  0  0  0  0
   42.1847   -6.9610    0.0000 C   0  0  0  0  0  0  0  0  0  0  0  0
   42.9837   -7.1327    0.0000 C   0  0  0  0  0  0  0  0  0  0  0  0
   43.3939   -6.4259    0.0000 C   0  0  0  0  0  0  0  0  0  0  0  0
   42.8485   -5.8175    0.0000 N   0  0  0  0  0  0  0  0  0  0  0  0
   32.2463   -5.3278    0.0000 C   0  0  0  0  0  0  0  0  0  0  0  0
  5  1  2  0
  1  2  1  0
  2  3  2  0
  3  4  1  0
  4  6  2  0
  5  6  1  0
  6  7  1  0
  7  8  1  0
  8  9  2  0
  9  5  1  0
  2 10  1  0
 10 11  1  0
 11 12  1  0
 11 13  2  0
 12 14  1  0
 12 18  1  0
 14 15  1  0
 15 16  1  0
 16 17  1  0
 17 18  1  0
 17 19  1  0
 19 20  2  0
 20 21  1  0
 21 22  2  0
 22 23  1  0
 23 24  2  0
 24 19  1  0
 25 26  1  0
 26 27  2  0
 27 28  1  0
 28 29  2  0
 29 25  1  0
 21 25  1  0
  8 30  1  0
M  END
>  <Curated_InChIs>  (177) 
InChI=1S/C21H21N7OS/c1-14-25-17-10-16(5-6-18(17)30-14)26-21(29)15-4-2-8-27(12-15)19-11-20(23-13-22-19)28-9-3-7-24-28/h3,5-7,9-11,13,15H,2,4,8,12H2,1H3,(H,26,29)

>  <threshold>  (177) 
5

>  <pchembl>  (177) 
5.86

>  <Classification>  (177) 
1

>  <source>  (177) 
chembl_28

>  <SMILES>  (177) 
Cc1nc2cc(NC(=O)C3CCCN(c4cc(-n5cccn5)ncn4)C3)ccc2s1

>  <InChIKey>  (177) 
YVMMSDYPZRTEQW-UHFFFAOYSA-N

$$$$

     RDKit          2D

 28 31  0  0  0  0  0  0  0  0999 V2000
   -3.7800    1.8600    0.0000 C   0  0  0  0  0  0  0  0  0  0  0  0
   -3.7800    0.4000    0.0000 C   0  0  0  0  0  0  0  0  0  0  0  0
   -2.5200   -0.3300    0.0000 C   0  0  0  0  0  0  0  0  0  0  0  0
   -2.5200    2.6000    0.0000 C   0  0  0  0  0  0  0  0  0  0  0  0
   -1.2800    1.8600    0.0000 C   0  0  0  0  0  0  0  0  0  0  0  0
   -1.2800    0.4000    0.0000 C   0  0  0  0  0  0  0  0  0  0  0  0
    0.0000   -0.3300    0.0000 N   0  0  0  0  0  0  0  0  0  0  0  0
    1.2600    1.8600    0.0000 C   0  0  0  0  0  0  0  0  0  0  0  0
    1.2600    0.4000    0.0000 C   0  0  0  0  0  0  0  0  0  0  0  0
    2.5200   -0.3300    0.0000 C   0  0  0  0  0  0  0  0  0  0  0  0
    2.5200    2.6000    0.0000 C   0  0  0  0  0  0  0  0  0  0  0  0
    3.8000    1.8600    0.0000 C   0  0  0  0  0  0  0  0  0  0  0  0
    3.8000    0.4000    0.0000 N   0  0  0  0  0  0  0  0  0  0  0  0
    5.0500   -0.3600    0.0000 C   0  0  0  0  0  0  0  0  0  0  0  0
    6.3600    0.4000    0.0000 C   0  0  0  0  0  0  0  0  0  0  0  0
    6.3600    1.8600    0.0000 N   0  0  0  0  0  0  0  0  0  0  0  0
    5.0500    2.5700    0.0000 C   0  0  0  0  0  0  0  0  0  0  0  0
    5.0381    3.7699    0.0000 O   0  0  0  0  0  0  0  0  0  0  0  0
    5.0377   -1.5599    0.0000 O   0  0  0  0  0  0  0  0  0  0  0  0
    7.6665   -0.3389    0.0000 C   0  0  0  0  0  0  0  0  0  0  0  0
    7.6812   -1.8396    0.0000 C   0  0  0  0  0  0  0  0  0  0  0  0
    8.9878   -2.5781    0.0000 C   0  0  0  0  0  0  0  0  0  0  0  0
    8.9995   -3.7781    0.0000 O   0  0  0  0  0  0  0  0  0  0  0  0
   10.0213   -1.9683    0.0000 O   0  0  0  0  0  0  0  0  0  0  0  0
    2.5070   -1.8312    0.0000 C   0  0  0  0  0  0  0  0  0  0  0  0
    1.2012   -2.5710    0.0000 C   0  0  0  0  0  0  0  0  0  0  0  0
    1.1907   -3.7710    0.0000 C   0  0  0  0  0  0  0  0  0  0  0  0
    0.1670   -1.9623    0.0000 C   0  0  0  0  0  0  0  0  0  0  0  0
  1  2  2  0
  2  3  1  0
  3  6  2  0
  5  4  2  0
  4  1  1  0
  5  6  1  0
  6  7  1  0
  7  9  1  0
  8  5  1  0
  8  9  2  0
  8 11  1  0
  9 10  1  0
 10 13  1  0
 12 11  1  1
 12 13  1  0
 12 17  1  0
 13 14  1  0
 14 15  1  0
 15 16  1  0
 16 17  1  0
 17 18  2  0
 14 19  2  0
 15 20  1  1
 20 21  1  0
 21 22  1  0
 22 23  2  0
 22 24  1  0
 10 25  1  1
 25 26  1  0
 26 27  1  0
 26 28  1  0
M  END
>  <Curated_InChIs>  (178) 
InChI=1S/C21H25N3O4/c1-11(2)9-16-19-13(12-5-3-4-6-14(12)22-19)10-17-20(27)23-15(7-8-18(25)26)21(28)24(16)17/h3-6,11,15-17,22H,7-10H2,1-2H3,(H,23,27)(H,25,26)

>  <threshold>  (178) 
5

>  <pchembl>  (178) 
6.64

>  <Classification>  (178) 
1

>  <source>  (178) 
chembl_28

>  <SMILES>  (178) 
CC(C)C[C@H]1c2[nH]c3ccccc3c2C[C@H]2C(=O)N[C@@H](CCC(=O)O)C(=O)N21

>  <InChIKey>  (178) 
ZABODVDQHQNZFF-ULQDDVLXSA-N

$$$$

     RDKit          2D

 19 20  0  0  0  0  0  0  0  0999 V2000
   19.5575   -2.9303    0.0000 C   0  0  0  0  0  0  0  0  0  0  0  0
   19.5564   -3.7498    0.0000 C   0  0  0  0  0  0  0  0  0  0  0  0
   20.2644   -4.1588    0.0000 C   0  0  0  0  0  0  0  0  0  0  0  0
   20.9741   -3.7494    0.0000 C   0  0  0  0  0  0  0  0  0  0  0  0
   20.9713   -2.9267    0.0000 C   0  0  0  0  0  0  0  0  0  0  0  0
   20.2626   -2.5214    0.0000 C   0  0  0  0  0  0  0  0  0  0  0  0
   21.6774   -2.5154    0.0000 C   0  0  0  0  0  0  0  0  0  0  0  0
   22.3867   -2.9214    0.0000 C   0  0  0  0  0  0  0  0  0  0  0  0
   21.6743   -1.6983    0.0000 O   0  0  0  0  0  0  0  0  0  0  0  0
   23.0928   -2.5101    0.0000 C   0  0  0  0  0  0  0  0  0  0  0  0
   23.8021   -2.9160    0.0000 C   0  0  0  0  0  0  0  0  0  0  0  0
   23.8020   -3.7321    0.0000 C   0  0  0  0  0  0  0  0  0  0  0  0
   24.5105   -4.1379    0.0000 C   0  0  0  0  0  0  0  0  0  0  0  0
   25.2176   -3.7266    0.0000 C   0  0  0  0  0  0  0  0  0  0  0  0
   25.2119   -2.9052    0.0000 C   0  0  0  0  0  0  0  0  0  0  0  0
   24.5029   -2.5031    0.0000 C   0  0  0  0  0  0  0  0  0  0  0  0
   18.8483   -4.1579    0.0000 O   0  0  0  0  0  0  0  0  0  0  0  0
   23.0950   -4.1419    0.0000 F   0  0  0  0  0  0  0  0  0  0  0  0
   24.4962   -1.6859    0.0000 F   0  0  0  0  0  0  0  0  0  0  0  0
  1  2  2  0
  2  3  1  0
  3  4  2  0
  4  5  1  0
  5  6  2  0
  6  1  1  0
  5  7  1  0
  7  8  1  0
  7  9  2  0
  8 10  2  0
 10 11  1  0
 11 12  2  0
 12 13  1  0
 13 14  2  0
 14 15  1  0
 15 16  2  0
 16 11  1  0
  2 17  1  0
 12 18  1  0
 16 19  1  0
M  END
>  <Curated_InChIs>  (179) 
InChI=1S/C15H10F2O2/c16-13-2-1-3-14(17)12(13)8-9-15(19)10-4-6-11(18)7-5-10/h1-9,18H

>  <threshold>  (179) 
5

>  <pchembl>  (179) 
5.14

>  <Classification>  (179) 
1

>  <source>  (179) 
chembl_28

>  <SMILES>  (179) 
O=C(/C=C/c1c(F)cccc1F)c1ccc(O)cc1

>  <InChIKey>  (179) 
ZDCDNAICEKQHNV-CMDGGOBGSA-N

$$$$

     RDKit          2D

 24 27  0  0  0  0  0  0  0  0999 V2000
   10.0938   -3.4999    0.0000 C   0  0  0  0  0  0  0  0  0  0  0  0
   10.0926   -4.3194    0.0000 C   0  0  0  0  0  0  0  0  0  0  0  0
   10.8007   -4.7284    0.0000 C   0  0  0  0  0  0  0  0  0  0  0  0
   10.7989   -3.0910    0.0000 C   0  0  0  0  0  0  0  0  0  0  0  0
   11.5075   -3.4963    0.0000 C   0  0  0  0  0  0  0  0  0  0  0  0
   11.5083   -4.3153    0.0000 C   0  0  0  0  0  0  0  0  0  0  0  0
   12.2168   -4.7223    0.0000 N   0  0  0  0  0  0  0  0  0  0  0  0
   12.9251   -4.3115    0.0000 C   0  0  0  0  0  0  0  0  0  0  0  0
   12.9203   -3.4894    0.0000 N   0  0  0  0  0  0  0  0  0  0  0  0
   12.2112   -3.0860    0.0000 C   0  0  0  0  0  0  0  0  0  0  0  0
   12.2069   -2.2688    0.0000 N   0  0  0  0  0  0  0  0  0  0  0  0
   12.9124   -1.8565    0.0000 C   0  0  0  0  0  0  0  0  0  0  0  0
   13.6177   -2.2647    0.0000 C   0  0  0  0  0  0  0  0  0  0  0  0
   14.3228   -1.8531    0.0000 C   0  0  0  0  0  0  0  0  0  0  0  0
   14.3189   -1.0350    0.0000 C   0  0  0  0  0  0  0  0  0  0  0  0
   13.6040   -0.6304    0.0000 C   0  0  0  0  0  0  0  0  0  0  0  0
   12.9019   -1.0443    0.0000 C   0  0  0  0  0  0  0  0  0  0  0  0
   13.6308   -4.7133    0.0000 C   0  0  0  0  0  0  0  0  0  0  0  0
   13.6327   -5.5316    0.0000 C   0  0  0  0  0  0  0  0  0  0  0  0
   14.3411   -5.9373    0.0000 C   0  0  0  0  0  0  0  0  0  0  0  0
   15.0482   -5.5259    0.0000 C   0  0  0  0  0  0  0  0  0  0  0  0
   15.0424   -4.7045    0.0000 C   0  0  0  0  0  0  0  0  0  0  0  0
   14.3334   -4.3025    0.0000 C   0  0  0  0  0  0  0  0  0  0  0  0
   15.0239   -0.6217    0.0000 I   0  0  0  0  0  0  0  0  0  0  0  0
  1  2  2  0
  2  3  1  0
  3  6  2  0
  5  4  2  0
  4  1  1  0
  5  6  1  0
  6  7  1  0
  7  8  2  0
  8  9  1  0
  9 10  2  0
 10  5  1  0
 10 11  1  0
 11 12  1  0
 12 13  2  0
 13 14  1  0
 14 15  2  0
 15 16  1  0
 16 17  2  0
 17 12  1  0
 18 19  2  0
 19 20  1  0
 20 21  2  0
 21 22  1  0
 22 23  2  0
 23 18  1  0
  8 18  1  0
 15 24  1  0
M  END
>  <Curated_InChIs>  (180) 
InChI=1S/C20H14IN3/c21-15-10-12-16(13-11-15)22-20-17-8-4-5-9-18(17)23-19(24-20)14-6-2-1-3-7-14/h1-13H,(H,22,23,24)

>  <threshold>  (180) 
5

>  <pchembl>  (180) 
6.21

>  <Classification>  (180) 
1

>  <source>  (180) 
chembl_28

>  <SMILES>  (180) 
Ic1ccc(Nc2nc(-c3ccccc3)nc3ccccc23)cc1

>  <InChIKey>  (180) 
ZDRAISAWZCJVCR-UHFFFAOYSA-N

$$$$

     RDKit          2D

 19 21  0  0  0  0  0  0  0  0999 V2000
   24.0067  -11.2425    0.0000 C   0  0  0  0  0  0  0  0  0  0  0  0
   24.0055  -12.0621    0.0000 C   0  0  0  0  0  0  0  0  0  0  0  0
   24.7136  -12.4710    0.0000 C   0  0  0  0  0  0  0  0  0  0  0  0
   24.7118  -10.8337    0.0000 C   0  0  0  0  0  0  0  0  0  0  0  0
   25.4204  -11.2389    0.0000 C   0  0  0  0  0  0  0  0  0  0  0  0
   25.4212  -12.0579    0.0000 C   0  0  0  0  0  0  0  0  0  0  0  0
   26.1297  -12.4650    0.0000 N   0  0  0  0  0  0  0  0  0  0  0  0
   26.8380  -12.0542    0.0000 C   0  0  0  0  0  0  0  0  0  0  0  0
   26.8332  -11.2321    0.0000 N   0  0  0  0  0  0  0  0  0  0  0  0
   26.1241  -10.8287    0.0000 C   0  0  0  0  0  0  0  0  0  0  0  0
   26.1198  -10.0115    0.0000 N   0  0  0  0  0  0  0  0  0  0  0  0
   26.8253   -9.5992    0.0000 C   0  0  0  0  0  0  0  0  0  0  0  0
   27.5306  -10.0074    0.0000 C   0  0  0  0  0  0  0  0  0  0  0  0
   28.2357   -9.5957    0.0000 C   0  0  0  0  0  0  0  0  0  0  0  0
   28.2318   -8.7777    0.0000 C   0  0  0  0  0  0  0  0  0  0  0  0
   27.5169   -8.3730    0.0000 C   0  0  0  0  0  0  0  0  0  0  0  0
   26.8148   -8.7870    0.0000 C   0  0  0  0  0  0  0  0  0  0  0  0
   27.5097   -7.5559    0.0000 S   0  0  0  0  0  0  0  0  0  0  0  0
   28.2138   -7.1410    0.0000 C   0  0  0  0  0  0  0  0  0  0  0  0
  1  2  2  0
  2  3  1  0
  3  6  2  0
  5  4  2  0
  4  1  1  0
  5  6  1  0
  6  7  1  0
  7  8  2  0
  8  9  1  0
  9 10  2  0
 10  5  1  0
 10 11  1  0
 11 12  1  0
 12 13  2  0
 13 14  1  0
 14 15  2  0
 15 16  1  0
 16 17  2  0
 17 12  1  0
 16 18  1  0
 18 19  1  0
M  END
>  <Curated_InChIs>  (181) 
InChI=1S/C15H13N3S/c1-19-12-6-4-5-11(9-12)18-15-13-7-2-3-8-14(13)16-10-17-15/h2-10H,1H3,(H,16,17,18)

>  <threshold>  (181) 
5

>  <pchembl>  (181) 
5.87

>  <Classification>  (181) 
1

>  <source>  (181) 
chembl_28

>  <SMILES>  (181) 
CSc1cccc(Nc2ncnc3ccccc23)c1

>  <InChIKey>  (181) 
ZLTVUJQOKVLDOP-UHFFFAOYSA-N

$$$$

     RDKit          2D

 26 29  0  0  0  0  0  0  0  0999 V2000
   41.1966  -25.9024    0.0000 C   0  0  0  0  0  0  0  0  0  0  0  0
   41.1954  -26.7220    0.0000 C   0  0  0  0  0  0  0  0  0  0  0  0
   41.9035  -27.1309    0.0000 C   0  0  0  0  0  0  0  0  0  0  0  0
   41.9017  -25.4936    0.0000 C   0  0  0  0  0  0  0  0  0  0  0  0
   42.6103  -25.8988    0.0000 C   0  0  0  0  0  0  0  0  0  0  0  0
   42.6111  -26.7179    0.0000 C   0  0  0  0  0  0  0  0  0  0  0  0
   43.3196  -27.1249    0.0000 N   0  0  0  0  0  0  0  0  0  0  0  0
   44.0279  -26.7141    0.0000 C   0  0  0  0  0  0  0  0  0  0  0  0
   44.0231  -25.8920    0.0000 N   0  0  0  0  0  0  0  0  0  0  0  0
   43.3140  -25.4886    0.0000 C   0  0  0  0  0  0  0  0  0  0  0  0
   44.7413  -27.1171    0.0000 C   0  0  0  0  0  0  0  0  0  0  0  0
   43.3097  -24.6714    0.0000 N   0  0  0  0  0  0  0  0  0  0  0  0
   44.0152  -24.2591    0.0000 C   0  0  0  0  0  0  0  0  0  0  0  0
   44.7205  -24.6673    0.0000 C   0  0  0  0  0  0  0  0  0  0  0  0
   45.4256  -24.2557    0.0000 C   0  0  0  0  0  0  0  0  0  0  0  0
   45.4217  -23.4376    0.0000 C   0  0  0  0  0  0  0  0  0  0  0  0
   44.7068  -23.0330    0.0000 C   0  0  0  0  0  0  0  0  0  0  0  0
   44.0047  -23.4469    0.0000 C   0  0  0  0  0  0  0  0  0  0  0  0
   44.7441  -27.9364    0.0000 C   0  0  0  0  0  0  0  0  0  0  0  0
   45.4567  -28.3393    0.0000 C   0  0  0  0  0  0  0  0  0  0  0  0
   46.1634  -27.9229    0.0000 C   0  0  0  0  0  0  0  0  0  0  0  0
   46.1530  -27.0993    0.0000 C   0  0  0  0  0  0  0  0  0  0  0  0
   45.4399  -26.7001    0.0000 C   0  0  0  0  0  0  0  0  0  0  0  0
   42.5998  -24.2666    0.0000 C   0  0  0  0  0  0  0  0  0  0  0  0
   46.1245  -23.0222    0.0000 C   0  0  0  0  0  0  0  0  0  0  0  0
   46.8295  -22.6089    0.0000 N   0  0  0  0  0  0  0  0  0  0  0  0
  1  2  2  0
  2  3  1  0
  3  6  2  0
  5  4  2  0
  4  1  1  0
  5  6  1  0
  6  7  1  0
  7  8  2  0
  8  9  1  0
  9 10  2  0
 10  5  1  0
  8 11  1  0
 10 12  1  0
 12 13  1  0
 13 14  2  0
 14 15  1  0
 15 16  2  0
 16 17  1  0
 17 18  2  0
 18 13  1  0
 11 19  2  0
 19 20  1  0
 20 21  2  0
 21 22  1  0
 22 23  2  0
 23 11  1  0
 12 24  1  0
 25 26  3  0
 16 25  1  0
M  END
>  <Curated_InChIs>  (182) 
InChI=1S/C22H16N4/c1-26(18-13-11-16(15-23)12-14-18)22-19-9-5-6-10-20(19)24-21(25-22)17-7-3-2-4-8-17/h2-14H,1H3

>  <threshold>  (182) 
5

>  <pchembl>  (182) 
5.0

>  <Classification>  (182) 
1

>  <source>  (182) 
chembl_28

>  <SMILES>  (182) 
CN(c1ccc(C#N)cc1)c1nc(-c2ccccc2)nc2ccccc12

>  <InChIKey>  (182) 
ZNTGNFVBQLQUQQ-UHFFFAOYSA-N

$$$$

     RDKit          2D

 22 23  0  0  0  0  0  0  0  0999 V2000
   10.6510   -7.3794    0.0000 C   0  0  0  0  0  0  0  0  0  0  0  0
   10.6498   -8.1990    0.0000 C   0  0  0  0  0  0  0  0  0  0  0  0
   11.3579   -8.6079    0.0000 C   0  0  0  0  0  0  0  0  0  0  0  0
   12.0675   -8.1985    0.0000 C   0  0  0  0  0  0  0  0  0  0  0  0
   12.0647   -7.3758    0.0000 C   0  0  0  0  0  0  0  0  0  0  0  0
   11.3561   -6.9706    0.0000 C   0  0  0  0  0  0  0  0  0  0  0  0
   12.7709   -6.9646    0.0000 C   0  0  0  0  0  0  0  0  0  0  0  0
   13.4801   -7.3705    0.0000 C   0  0  0  0  0  0  0  0  0  0  0  0
   12.7678   -6.1474    0.0000 O   0  0  0  0  0  0  0  0  0  0  0  0
   14.1863   -6.9593    0.0000 C   0  0  0  0  0  0  0  0  0  0  0  0
   14.8955   -7.3652    0.0000 C   0  0  0  0  0  0  0  0  0  0  0  0
   14.8955   -8.1812    0.0000 C   0  0  0  0  0  0  0  0  0  0  0  0
   15.6039   -8.5871    0.0000 C   0  0  0  0  0  0  0  0  0  0  0  0
   16.3110   -8.1758    0.0000 C   0  0  0  0  0  0  0  0  0  0  0  0
   16.3053   -7.3544    0.0000 C   0  0  0  0  0  0  0  0  0  0  0  0
   15.5963   -6.9522    0.0000 C   0  0  0  0  0  0  0  0  0  0  0  0
    9.9418   -8.6070    0.0000 O   0  0  0  0  0  0  0  0  0  0  0  0
   17.0208   -8.5808    0.0000 O   0  0  0  0  0  0  0  0  0  0  0  0
   17.0250   -9.3979    0.0000 C   0  0  0  0  0  0  0  0  0  0  0  0
   17.7348   -9.8029    0.0000 C   0  0  0  0  0  0  0  0  0  0  0  0
   17.7389  -10.6201    0.0000 C   0  0  0  0  0  0  0  0  0  0  0  0
   18.4487  -11.0251    0.0000 C   0  0  0  0  0  0  0  0  0  0  0  0
  1  2  2  0
  2  3  1  0
  3  4  2  0
  4  5  1  0
  5  6  2  0
  6  1  1  0
  5  7  1  0
  7  8  1  0
  7  9  2  0
  8 10  2  0
 10 11  1  0
 11 12  2  0
 12 13  1  0
 13 14  2  0
 14 15  1  0
 15 16  2  0
 16 11  1  0
  2 17  1  0
 14 18  1  0
 18 19  1  0
 19 20  1  0
 20 21  1  0
 21 22  1  0
M  END
>  <Curated_InChIs>  (183) 
InChI=1S/C19H20O3/c1-2-3-14-22-18-11-4-15(5-12-18)6-13-19(21)16-7-9-17(20)10-8-16/h4-13,20H,2-3,14H2,1H3

>  <threshold>  (183) 
5

>  <pchembl>  (183) 
5.14

>  <Classification>  (183) 
1

>  <source>  (183) 
chembl_28

>  <SMILES>  (183) 
CCCCOc1ccc(/C=C/C(=O)c2ccc(O)cc2)cc1

>  <InChIKey>  (183) 
ZODVNGJHTPZQCK-AWNIVKPZSA-N

$$$$

     RDKit          2D

 26 29  0  0  0  0  0  0  0  0999 V2000
   26.7306  -20.3059    0.0000 C   0  0  0  0  0  0  0  0  0  0  0  0
   26.7295  -21.1255    0.0000 C   0  0  0  0  0  0  0  0  0  0  0  0
   27.4375  -21.5344    0.0000 C   0  0  0  0  0  0  0  0  0  0  0  0
   27.4358  -19.8971    0.0000 C   0  0  0  0  0  0  0  0  0  0  0  0
   28.1444  -20.3023    0.0000 C   0  0  0  0  0  0  0  0  0  0  0  0
   28.1451  -21.1213    0.0000 C   0  0  0  0  0  0  0  0  0  0  0  0
   28.8537  -21.5284    0.0000 N   0  0  0  0  0  0  0  0  0  0  0  0
   29.5619  -21.1176    0.0000 C   0  0  0  0  0  0  0  0  0  0  0  0
   29.5572  -20.2955    0.0000 N   0  0  0  0  0  0  0  0  0  0  0  0
   28.8481  -19.8921    0.0000 C   0  0  0  0  0  0  0  0  0  0  0  0
   28.8438  -19.0749    0.0000 N   0  0  0  0  0  0  0  0  0  0  0  0
   29.5493  -18.6626    0.0000 C   0  0  0  0  0  0  0  0  0  0  0  0
   30.2546  -19.0708    0.0000 C   0  0  0  0  0  0  0  0  0  0  0  0
   30.9596  -18.6591    0.0000 C   0  0  0  0  0  0  0  0  0  0  0  0
   30.9557  -17.8411    0.0000 C   0  0  0  0  0  0  0  0  0  0  0  0
   30.2409  -17.4364    0.0000 C   0  0  0  0  0  0  0  0  0  0  0  0
   29.5388  -17.8504    0.0000 C   0  0  0  0  0  0  0  0  0  0  0  0
   30.2677  -21.5194    0.0000 C   0  0  0  0  0  0  0  0  0  0  0  0
   30.2695  -22.3376    0.0000 C   0  0  0  0  0  0  0  0  0  0  0  0
   30.9780  -22.7434    0.0000 C   0  0  0  0  0  0  0  0  0  0  0  0
   31.6851  -22.3320    0.0000 C   0  0  0  0  0  0  0  0  0  0  0  0
   31.6792  -21.5106    0.0000 C   0  0  0  0  0  0  0  0  0  0  0  0
   30.9702  -21.1085    0.0000 C   0  0  0  0  0  0  0  0  0  0  0  0
   31.6693  -19.0643    0.0000 F   0  0  0  0  0  0  0  0  0  0  0  0
   31.6607  -17.4278    0.0000 O   0  0  0  0  0  0  0  0  0  0  0  0
   32.3711  -17.8317    0.0000 C   0  0  0  0  0  0  0  0  0  0  0  0
  1  2  2  0
  2  3  1  0
  3  6  2  0
  5  4  2  0
  4  1  1  0
  5  6  1  0
  6  7  1  0
  7  8  2  0
  8  9  1  0
  9 10  2  0
 10  5  1  0
 10 11  1  0
 11 12  1  0
 12 13  2  0
 13 14  1  0
 14 15  2  0
 15 16  1  0
 16 17  2  0
 17 12  1  0
 18 19  2  0
 19 20  1  0
 20 21  2  0
 21 22  1  0
 22 23  2  0
 23 18  1  0
  8 18  1  0
 14 24  1  0
 15 25  1  0
 25 26  1  0
M  END
>  <Curated_InChIs>  (184) 
InChI=1S/C21H16FN3O/c1-26-19-12-11-15(13-17(19)22)23-21-16-9-5-6-10-18(16)24-20(25-21)14-7-3-2-4-8-14/h2-13H,1H3,(H,23,24,25)

>  <threshold>  (184) 
5

>  <pchembl>  (184) 
6.06, 6.16

>  <Classification>  (184) 
1

>  <source>  (184) 
chembl_28

>  <SMILES>  (184) 
COc1ccc(Nc2nc(-c3ccccc3)nc3ccccc23)cc1F

>  <InChIKey>  (184) 
ZOEIOUGYWBQJBH-UHFFFAOYSA-N

$$$$

     RDKit          2D

 24 27  0  0  0  0  0  0  0  0999 V2000
    1.2610    0.2999    0.0000 N   0  0  0  0  0  0  0  0  0  0  0  0
    1.9755    1.5374    0.0000 N   0  0  0  0  0  0  0  0  0  0  0  0
    1.9755   -0.9376    0.0000 N   0  0  0  0  0  0  0  0  0  0  0  0
    2.6899    0.2999    0.0000 C   0  0  0  0  0  0  0  0  0  0  0  0
    1.9755   -0.1126    0.0000 C   0  0  0  0  0  0  0  0  0  0  0  0
    2.6899    1.1249    0.0000 C   0  0  0  0  0  0  0  0  0  0  0  0
    1.2610    1.1249    0.0000 C   0  0  0  0  0  0  0  0  0  0  0  0
    0.5465    1.5374    0.0000 C   0  0  0  0  0  0  0  0  0  0  0  0
    3.4044   -0.1126    0.0000 C   0  0  0  0  0  0  0  0  0  0  0  0
    3.4044    1.5374    0.0000 C   0  0  0  0  0  0  0  0  0  0  0  0
    1.2610   -1.3501    0.0000 C   0  0  0  0  0  0  0  0  0  0  0  0
    4.1189    0.2999    0.0000 C   0  0  0  0  0  0  0  0  0  0  0  0
    4.1189    1.1249    0.0000 C   0  0  0  0  0  0  0  0  0  0  0  0
   -0.1680    1.1249    0.0000 C   0  0  0  0  0  0  0  0  0  0  0  0
    0.5465    2.3624    0.0000 C   0  0  0  0  0  0  0  0  0  0  0  0
    1.2610   -2.1751    0.0000 C   0  0  0  0  0  0  0  0  0  0  0  0
    0.5465   -0.9376    0.0000 C   0  0  0  0  0  0  0  0  0  0  0  0
   -0.8824    1.5374    0.0000 C   0  0  0  0  0  0  0  0  0  0  0  0
   -0.1680    2.7749    0.0000 C   0  0  0  0  0  0  0  0  0  0  0  0
   -0.1680   -2.1751    0.0000 C   0  0  0  0  0  0  0  0  0  0  0  0
    0.5465   -2.5876    0.0000 C   0  0  0  0  0  0  0  0  0  0  0  0
   -0.1680   -1.3501    0.0000 C   0  0  0  0  0  0  0  0  0  0  0  0
   -0.8824    2.3624    0.0000 C   0  0  0  0  0  0  0  0  0  0  0  0
   -0.8824   -2.5876    0.0000 C   0  0  0  0  0  0  0  0  0  0  0  0
  1  5  2  0
  1  7  1  0
  2  6  1  0
  2  7  2  0
  3  5  1  0
  3 11  1  0
  4  5  1  0
  4  6  2  0
  4  9  1  0
  6 10  1  0
  7  8  1  0
  8 14  2  0
  8 15  1  0
  9 12  2  0
 10 13  2  0
 11 16  2  0
 11 17  1  0
 12 13  1  0
 14 18  1  0
 15 19  2  0
 16 21  1  0
 17 22  2  0
 18 23  2  0
 19 23  1  0
 20 21  2  0
 20 22  1  0
 20 24  1  0
M  END
>  <Curated_InChIs>  (185) 
InChI=1S/C21H17N3/c1-15-11-13-17(14-12-15)22-21-18-9-5-6-10-19(18)23-20(24-21)16-7-3-2-4-8-16/h2-14H,1H3,(H,22,23,24)

>  <threshold>  (185) 
5

>  <pchembl>  (185) 
5.83

>  <Classification>  (185) 
1

>  <source>  (185) 
chembl_28

>  <SMILES>  (185) 
Cc1ccc(Nc2nc(-c3ccccc3)nc3ccccc23)cc1

>  <InChIKey>  (185) 
ZQBBGETVLPFVHV-UHFFFAOYSA-N

$$$$

     RDKit          2D

 83 92  0  0  0  0  0  0  0  0999 V2000
    5.3790  -12.4765    0.0000 C   0  0  0  0  0  0  0  0  0  0  0  0
    6.0923  -12.0662    0.0000 C   0  0  0  0  0  0  0  0  0  0  0  0
    6.8018  -12.4759    0.0000 C   0  0  0  0  0  0  0  0  0  0  0  0
    6.8018  -13.3016    0.0000 C   0  0  0  0  0  0  0  0  0  0  0  0
    6.0949  -13.7111    0.0000 C   0  0  0  0  0  0  0  0  0  0  0  0
    5.3790  -13.3027    0.0000 C   0  0  0  0  0  0  0  0  0  0  0  0
    7.5152  -13.7123    0.0000 O   0  0  0  0  0  0  0  0  0  0  0  0
    8.2328  -13.3016    0.0000 C   0  0  0  0  0  0  0  0  0  0  0  0
    8.2328  -12.4760    0.0000 C   0  0  0  0  0  0  0  0  0  0  0  0
    7.5152  -12.0652    0.0000 C   0  0  0  0  0  0  0  0  0  0  0  0
    7.5152  -11.2395    0.0000 O   0  0  0  0  0  0  0  0  0  0  0  0
    8.9463  -12.0652    0.0000 O   0  0  0  0  0  0  0  0  0  0  0  0
    9.6596  -12.4760    0.0000 C   0  0  0  0  0  0  0  0  0  0  0  0
   10.3772  -12.0652    0.0000 C   0  0  0  0  0  0  0  0  0  0  0  0
   10.3776  -11.2395    0.0000 C   0  0  0  0  0  0  0  0  0  0  0  0
   11.0884  -10.8273    0.0000 C   0  0  0  0  0  0  0  0  0  0  0  0
   11.8021  -11.2424    0.0000 C   0  0  0  0  0  0  0  0  0  0  0  0
   11.8044  -12.0622    0.0000 C   0  0  0  0  0  0  0  0  0  0  0  0
   11.0908  -12.4785    0.0000 C   0  0  0  0  0  0  0  0  0  0  0  0
   12.5178  -12.4730    0.0000 C   0  0  0  0  0  0  0  0  0  0  0  0
   13.2354  -12.0622    0.0000 O   0  0  0  0  0  0  0  0  0  0  0  0
   13.9488  -12.4730    0.0000 C   0  0  0  0  0  0  0  0  0  0  0  0
   12.5178  -13.2985    0.0000 O   0  0  0  0  0  0  0  0  0  0  0  0
    8.9463  -13.7123    0.0000 C   0  0  0  0  0  0  0  0  0  0  0  0
    9.6599  -13.3019    0.0000 C   0  0  0  0  0  0  0  0  0  0  0  0
   10.3738  -13.7117    0.0000 C   0  0  0  0  0  0  0  0  0  0  0  0
   10.3738  -14.5377    0.0000 C   0  0  0  0  0  0  0  0  0  0  0  0
    9.6624  -14.9517    0.0000 C   0  0  0  0  0  0  0  0  0  0  0  0
    8.9463  -14.5430    0.0000 C   0  0  0  0  0  0  0  0  0  0  0  0
   11.0872  -14.9526    0.0000 O   0  0  0  0  0  0  0  0  0  0  0  0
   11.8006  -14.5377    0.0000 C   0  0  0  0  0  0  0  0  0  0  0  0
   12.5141  -14.9526    0.0000 C   0  0  0  0  0  0  0  0  0  0  0  0
   13.2316  -14.5377    0.0000 O   0  0  0  0  0  0  0  0  0  0  0  0
   13.9450  -14.9526    0.0000 C   0  0  0  0  0  0  0  0  0  0  0  0
   14.6584  -14.5377    0.0000 C   0  0  0  0  0  0  0  0  0  0  0  0
   15.3760  -14.9526    0.0000 N   0  0  0  0  0  0  0  0  0  0  0  0
   16.1282  -14.6147    0.0000 C   0  0  0  0  0  0  0  0  0  0  0  0
   16.6798  -15.2286    0.0000 C   0  0  0  0  0  0  0  0  0  0  0  0
   16.2652  -15.9414    0.0000 N   0  0  0  0  0  0  0  0  0  0  0  0
   15.4617  -15.7712    0.0000 N   0  0  0  0  0  0  0  0  0  0  0  0
   17.5055  -15.2286    0.0000 C   0  0  0  0  0  0  0  0  0  0  0  0
   17.9162  -14.5151    0.0000 O   0  0  0  0  0  0  0  0  0  0  0  0
   18.7419  -14.5151    0.0000 C   0  0  0  0  0  0  0  0  0  0  0  0
   19.1526  -13.7976    0.0000 C   0  0  0  0  0  0  0  0  0  0  0  0
   18.6562  -13.1417    0.0000 N   0  0  0  0  0  0  0  0  0  0  0  0
   19.1250  -12.4649    0.0000 N   0  0  0  0  0  0  0  0  0  0  0  0
   19.9165  -12.7015    0.0000 N   0  0  0  0  0  0  0  0  0  0  0  0
   19.9329  -13.5263    0.0000 C   0  0  0  0  0  0  0  0  0  0  0  0
   20.5181  -12.1396    0.0000 C   0  0  0  0  0  0  0  0  0  0  0  0
   21.3059  -12.3763    0.0000 C   0  0  0  0  0  0  0  0  0  0  0  0
   21.9075  -11.8103    0.0000 O   0  0  0  0  0  0  0  0  0  0  0  0
   22.6995  -12.0512    0.0000 C   0  0  0  0  0  0  0  0  0  0  0  0
   23.2970  -11.4852    0.0000 C   0  0  0  0  0  0  0  0  0  0  0  0
   24.0889  -11.7261    0.0000 O   0  0  0  0  0  0  0  0  0  0  0  0
   24.6906  -11.1600    0.0000 C   0  0  0  0  0  0  0  0  0  0  0  0
   24.5006  -10.3571    0.0000 C   0  0  0  0  0  0  0  0  0  0  0  0
   25.1004   -9.7943    0.0000 C   0  0  0  0  0  0  0  0  0  0  0  0
   25.8927  -10.0311    0.0000 C   0  0  0  0  0  0  0  0  0  0  0  0
   26.0797  -10.8319    0.0000 C   0  0  0  0  0  0  0  0  0  0  0  0
   25.4832  -11.3982    0.0000 C   0  0  0  0  0  0  0  0  0  0  0  0
   26.4943   -9.4650    0.0000 C   0  0  0  0  0  0  0  0  0  0  0  0
   26.3040   -8.6623    0.0000 C   0  0  0  0  0  0  0  0  0  0  0  0
   26.9056   -8.1005    0.0000 C   0  0  0  0  0  0  0  0  0  0  0  0
   27.6975   -8.3372    0.0000 C   0  0  0  0  0  0  0  0  0  0  0  0
   27.8837   -9.1400    0.0000 C   0  0  0  0  0  0  0  0  0  0  0  0
   27.2821   -9.7059    0.0000 O   0  0  0  0  0  0  0  0  0  0  0  0
   28.6764   -9.3778    0.0000 C   0  0  0  0  0  0  0  0  0  0  0  0
   29.2725   -8.8112    0.0000 C   0  0  0  0  0  0  0  0  0  0  0  0
   29.0852   -8.0149    0.0000 C   0  0  0  0  0  0  0  0  0  0  0  0
   28.2970   -7.7742    0.0000 C   0  0  0  0  0  0  0  0  0  0  0  0
   26.7153   -7.2977    0.0000 O   0  0  0  0  0  0  0  0  0  0  0  0
   25.5161   -8.4256    0.0000 O   0  0  0  0  0  0  0  0  0  0  0  0
   24.9145   -8.9916    0.0000 C   0  0  0  0  0  0  0  0  0  0  0  0
   24.1225   -8.7507    0.0000 C   0  0  0  0  0  0  0  0  0  0  0  0
   23.5205   -9.3165    0.0000 C   0  0  0  0  0  0  0  0  0  0  0  0
   22.7365   -9.0799    0.0000 C   0  0  0  0  0  0  0  0  0  0  0  0
   22.5460   -8.2767    0.0000 C   0  0  0  0  0  0  0  0  0  0  0  0
   23.1419   -7.7130    0.0000 C   0  0  0  0  0  0  0  0  0  0  0  0
   23.9351   -7.9472    0.0000 C   0  0  0  0  0  0  0  0  0  0  0  0
   22.1349   -9.6417    0.0000 C   0  0  0  0  0  0  0  0  0  0  0  0
   22.3211  -10.4486    0.0000 O   0  0  0  0  0  0  0  0  0  0  0  0
   21.3428   -9.4050    0.0000 O   0  0  0  0  0  0  0  0  0  0  0  0
   20.7412   -9.9710    0.0000 C   0  0  0  0  0  0  0  0  0  0  0  0
  2  1  2  0
  3  2  1  0
  4  3  2  0
  5  4  1  0
  6  5  2  0
  1  6  1  0
  4  7  1  0
  7  8  1  0
  8  9  2  0
  9 10  1  0
  3 10  1  0
 10 11  2  0
  9 12  1  0
 12 13  1  0
 13 14  1  0
 15 14  2  0
 16 15  1  0
 17 16  2  0
 18 17  1  0
 19 18  2  0
 14 19  1  0
 18 20  1  0
 20 21  1  0
 21 22  1  0
 20 23  2  0
 24  8  1  0
 25 24  2  0
 26 25  1  0
 27 26  2  0
 28 27  1  0
 29 28  2  0
 24 29  1  0
 27 30  1  0
 30 31  1  0
 31 32  1  0
 32 33  1  0
 33 34  1  0
 34 35  1  0
 35 36  1  0
 37 36  1  0
 37 38  2  0
 38 39  1  0
 39 40  2  0
 40 36  1  0
 38 41  1  0
 41 42  1  0
 42 43  1  0
 43 44  1  0
 44 45  1  0
 45 46  2  0
 46 47  1  0
 47 48  1  0
 48 44  2  0
 47 49  1  0
 49 50  1  0
 50 51  1  0
 51 52  1  0
 52 53  1  0
 53 54  1  0
 54 55  1  0
 56 55  2  0
 57 56  1  0
 58 57  2  0
 59 58  1  0
 60 59  2  0
 55 60  1  0
 61 58  1  0
 61 62  2  0
 63 62  1  0
 64 63  1  0
 65 64  2  0
 66 65  1  0
 61 66  1  0
 65 67  1  0
 67 68  2  0
 68 69  1  0
 69 70  2  0
 64 70  1  0
 63 71  2  0
 62 72  1  0
 72 73  1  0
 73 74  1  0
 75 74  2  0
 76 75  1  0
 77 76  2  0
 78 77  1  0
 79 78  2  0
 74 79  1  0
 76 80  1  0
 80 81  2  0
 80 82  1  0
 82 83  1  0
M  END
>  <Curated_InChIs>  (186) 
InChI=1S/C62H56N6O15/c1-73-61(71)45-11-7-9-41(33-45)37-80-59-55(69)51-13-3-5-15-53(51)82-57(59)43-17-21-49(22-18-43)78-31-29-75-27-25-67-35-47(63-65-67)39-77-40-48-36-68(66-64-48)26-28-76-30-32-79-50-23-19-44(20-24-50)58-60(56(70)52-14-4-6-16-54(52)83-58)81-38-42-10-8-12-46(34-42)62(72)74-2/h3-24,33-36H,25-32,37-40H2,1-2H3

>  <threshold>  (186) 
5

>  <pchembl>  (186) 
7.7

>  <Classification>  (186) 
1

>  <source>  (186) 
chembl_28

>  <SMILES>  (186) 
COC(=O)c1cccc(COc2c(-c3ccc(OCCOCCn4cc(COCc5cn(CCOCCOc6ccc(-c7oc8ccccc8c(=O)c7OCc7cccc(C(=O)OC)c7)cc6)nn5)nn4)cc3)oc3ccccc3c2=O)c1

>  <InChIKey>  (186) 
ZSKFPKVHQIXSSM-UHFFFAOYSA-N

$$$$

     RDKit          2D

 28 32  0  0  0  0  0  0  0  0999 V2000
    2.7102   -3.8176    0.0000 C   0  0  0  0  0  0  0  0  0  0  0  0
    2.7090   -4.6372    0.0000 C   0  0  0  0  0  0  0  0  0  0  0  0
    3.4171   -5.0461    0.0000 C   0  0  0  0  0  0  0  0  0  0  0  0
    3.4153   -3.4088    0.0000 C   0  0  0  0  0  0  0  0  0  0  0  0
    4.1239   -3.8140    0.0000 C   0  0  0  0  0  0  0  0  0  0  0  0
    4.1242   -4.6372    0.0000 C   0  0  0  0  0  0  0  0  0  0  0  0
    4.9071   -4.8914    0.0000 N   0  0  0  0  0  0  0  0  0  0  0  0
    4.9067   -3.5595    0.0000 C   0  0  0  0  0  0  0  0  0  0  0  0
    5.3909   -4.2266    0.0000 C   0  0  0  0  0  0  0  0  0  0  0  0
    6.2062   -4.1413    0.0000 C   0  0  0  0  0  0  0  0  0  0  0  0
    6.5437   -3.3899    0.0000 N   0  0  0  0  0  0  0  0  0  0  0  0
    6.0595   -2.7228    0.0000 C   0  0  0  0  0  0  0  0  0  0  0  0
    5.2378   -2.8071    0.0000 C   0  0  0  0  0  0  0  0  0  0  0  0
    7.3565   -3.3060    0.0000 C   0  0  0  0  0  0  0  0  0  0  0  0
    7.8356   -3.9681    0.0000 O   0  0  0  0  0  0  0  0  0  0  0  0
    7.6903   -2.5601    0.0000 C   0  0  0  0  0  0  0  0  0  0  0  0
    8.5034   -2.4803    0.0000 C   0  0  0  0  0  0  0  0  0  0  0  0
    8.8372   -1.7352    0.0000 C   0  0  0  0  0  0  0  0  0  0  0  0
    8.3580   -1.0722    0.0000 C   0  0  0  0  0  0  0  0  0  0  0  0
    7.5412   -1.1592    0.0000 C   0  0  0  0  0  0  0  0  0  0  0  0
    7.2111   -1.9044    0.0000 C   0  0  0  0  0  0  0  0  0  0  0  0
    6.6861   -4.8000    0.0000 C   0  0  0  0  0  0  0  0  0  0  0  0
    6.3507   -5.5464    0.0000 C   0  0  0  0  0  0  0  0  0  0  0  0
    6.8291   -6.2080    0.0000 C   0  0  0  0  0  0  0  0  0  0  0  0
    7.6428   -6.1244    0.0000 C   0  0  0  0  0  0  0  0  0  0  0  0
    7.9759   -5.3736    0.0000 C   0  0  0  0  0  0  0  0  0  0  0  0
    7.4955   -4.7151    0.0000 C   0  0  0  0  0  0  0  0  0  0  0  0
    8.1228   -6.7858    0.0000 Br  0  0  0  0  0  0  0  0  0  0  0  0
  1  2  2  0
  2  3  1  0
  3  6  2  0
  5  4  2  0
  4  1  1  0
  5  6  1  0
  6  7  1  0
  7  9  1  0
  8  5  1  0
  8  9  2  0
  8 13  1  0
  9 10  1  0
 10 11  1  0
 11 12  1  0
 12 13  1  0
 11 14  1  0
 14 15  2  0
 14 16  1  0
 16 17  2  0
 17 18  1  0
 18 19  2  0
 19 20  1  0
 20 21  2  0
 21 16  1  0
 22 23  2  0
 23 24  1  0
 24 25  2  0
 25 26  1  0
 26 27  2  0
 27 22  1  0
 10 22  1  0
 25 28  1  0
M  END
>  <Curated_InChIs>  (187) 
InChI=1S/C24H19BrN2O/c25-18-12-10-16(11-13-18)23-22-20(19-8-4-5-9-21(19)26-22)14-15-27(23)24(28)17-6-2-1-3-7-17/h1-13,23,26H,14-15H2

>  <threshold>  (187) 
5

>  <pchembl>  (187) 
6.16, 6.95, 6.06

>  <Classification>  (187) 
1

>  <source>  (187) 
chembl_28

>  <SMILES>  (187) 
O=C(c1ccccc1)N1CCc2c([nH]c3ccccc23)C1c1ccc(Br)cc1

>  <InChIKey>  (187) 
ZVLRLPQCUOHCMB-UHFFFAOYSA-N

$$$$
