
    RDKit          2D

 21 23  0  0  0  0  0  0  0  0999 V2000
   14.3250   -0.8167    0.0000 N   0  0  0  0  0  0  0  0  0  0  0  0
   12.9750   -0.5042    0.0000 C   0  0  0  0  0  0  0  0  0  0  0  0
   13.5792   -0.9750    0.0000 C   0  0  0  0  0  0  0  0  0  0  0  0
   13.5792    0.7458    0.0000 N   0  0  0  0  0  0  0  0  0  0  0  0
   14.6542   -0.1375    0.0000 C   0  0  0  0  0  0  0  0  0  0  0  0
   12.9750    0.2625    0.0000 C   0  0  0  0  0  0  0  0  0  0  0  0
   14.3250    0.5875    0.0000 C   0  0  0  0  0  0  0  0  0  0  0  0
   14.7292   -1.3417    0.0000 O   0  0  0  0  0  0  0  0  0  0  0  0
   12.3125   -0.8792    0.0000 C   0  0  0  0  0  0  0  0  0  0  0  0
   10.9542   -0.8625    0.0000 Cl  0  0  0  0  0  0  0  0  0  0  0  0
   13.5792   -1.7417    0.0000 C   0  0  0  0  0  0  0  0  0  0  0  0
   12.3125    0.6500    0.0000 C   0  0  0  0  0  0  0  0  0  0  0  0
   11.6500   -0.4917    0.0000 C   0  0  0  0  0  0  0  0  0  0  0  0
   14.7667    1.2083    0.0000 N   0  0  0  0  0  0  0  0  0  0  0  0
   11.6500    0.2583    0.0000 C   0  0  0  0  0  0  0  0  0  0  0  0
   12.9000   -2.1292    0.0000 C   0  0  0  0  0  0  0  0  0  0  0  0
   14.2417   -2.1292    0.0000 C   0  0  0  0  0  0  0  0  0  0  0  0
   15.5417    1.2083    0.0000 C   0  0  0  0  0  0  0  0  0  0  0  0
   14.2417   -2.9000    0.0000 C   0  0  0  0  0  0  0  0  0  0  0  0
   12.9000   -2.9000    0.0000 C   0  0  0  0  0  0  0  0  0  0  0  0
   13.5792   -3.2875    0.0000 C   0  0  0  0  0  0  0  0  0  0  0  0
  2  3  1  0
  3  1  2  0
  4  7  2  0
  5  1  1  0
  6  2  2  0
  7  5  1  0
  8  1  1  0
  9  2  1  0
 10 13  1  0
 11  3  1  0
 12  6  1  0
 13  9  2  0
 14  7  1  0
 15 13  1  0
 16 11  2  0
 17 11  1  0
 18 14  1  0
 19 17  2  0
 20 16  1  0
 21 19  1  0
  6  4  1  0
 21 20  2  0
 15 12  2  0
M  CHG  2   1   1   8  -1
M  END
>  <Curated_InChIs>  (1) 
InChI=1S/C16H14ClN3O/c1-18-15-10-20(21)16(11-5-3-2-4-6-11)13-9-12(17)7-8-14(13)19-15/h2-9H,10H2,1H3,(H,18,19)

>  <threshold>  (1) 
5

>  <pchembl>  (1) 
4.6, 4.36

>  <Classification>  (1) 
0

>  <source>  (1) 
chembl_28

>  <SMILES>  (1) 
CNC1=Nc2ccc(Cl)cc2C(c2ccccc2)=[N+]([O-])C1

>  <InChIKey>  (1) 
ANTSCNMPPGJYLG-UHFFFAOYSA-N

$$$$

     RDKit          2D

 33 36  0  0  0  0  0  0  0  0999 V2000
   31.8787  -25.3825    0.0000 O   0  0  0  0  0  0  0  0  0  0  0  0
   31.0615  -25.3825    0.0000 S   0  0  0  0  0  0  0  0  0  0  0  0
   31.4701  -26.0902    0.0000 O   0  0  0  0  0  0  0  0  0  0  0  0
   31.0402  -23.2706    0.0000 N   0  0  0  0  0  0  0  0  0  0  0  0
   26.6206  -24.6519    0.0000 C   0  0  0  0  0  0  0  0  0  0  0  0
   26.6206  -25.4691    0.0000 C   0  0  0  0  0  0  0  0  0  0  0  0
   27.3259  -25.8736    0.0000 C   0  0  0  0  0  0  0  0  0  0  0  0
   28.0312  -25.4691    0.0000 C   0  0  0  0  0  0  0  0  0  0  0  0
   28.0312  -24.6519    0.0000 C   0  0  0  0  0  0  0  0  0  0  0  0
   27.3259  -24.2392    0.0000 C   0  0  0  0  0  0  0  0  0  0  0  0
   28.7383  -25.8787    0.0000 C   0  0  0  0  0  0  0  0  0  0  0  0
   28.7401  -24.2454    0.0000 C   0  0  0  0  0  0  0  0  0  0  0  0
   29.4466  -24.6561    0.0000 N   0  0  0  0  0  0  0  0  0  0  0  0
   28.7425  -23.4282    0.0000 O   0  0  0  0  0  0  0  0  0  0  0  0
   28.7371  -26.6959    0.0000 C   0  0  0  0  0  0  0  0  0  0  0  0
   29.4466  -25.4712    0.0000 O   0  0  0  0  0  0  0  0  0  0  0  0
   28.0278  -27.1018    0.0000 C   0  0  0  0  0  0  0  0  0  0  0  0
   28.0263  -27.9182    0.0000 C   0  0  0  0  0  0  0  0  0  0  0  0
   28.7339  -28.3287    0.0000 C   0  0  0  0  0  0  0  0  0  0  0  0
   29.4446  -27.9167    0.0000 C   0  0  0  0  0  0  0  0  0  0  0  0
   29.4426  -27.1017    0.0000 C   0  0  0  0  0  0  0  0  0  0  0  0
   28.7361  -29.1489    0.0000 C   0  0  0  0  0  0  0  0  0  0  0  0
   28.0750  -29.6292    0.0000 C   0  0  0  0  0  0  0  0  0  0  0  0
   28.3274  -30.4064    0.0000 C   0  0  0  0  0  0  0  0  0  0  0  0
   29.1447  -30.4065    0.0000 N   0  0  0  0  0  0  0  0  0  0  0  0
   29.3971  -29.6294    0.0000 N   0  0  0  0  0  0  0  0  0  0  0  0
   27.8470  -31.0675    0.0000 C   0  0  0  0  0  0  0  0  0  0  0  0
   30.1555  -24.2496    0.0000 C   0  0  0  0  0  0  0  0  0  0  0  0
   30.8981  -24.5853    0.0000 C   0  0  0  0  0  0  0  0  0  0  0  0
   31.4467  -23.9796    0.0000 N   0  0  0  0  0  0  0  0  0  0  0  0
   30.2404  -23.4383    0.0000 C   0  0  0  0  0  0  0  0  0  0  0  0
   32.2625  -23.9792    0.0000 C   0  0  0  0  0  0  0  0  0  0  0  0
   30.4550  -25.9295    0.0000 N   0  0  0  0  0  0  0  0  0  0  0  0
  2  1  2  0
  3  2  2  0
  5  6  1  0
  5 10  1  0
  6  7  1  0
  7  8  1  0
  8  9  1  0
  9 10  1  0
  8 11  1  6
  9 12  1  1
 12 13  1  0
 12 14  2  0
 11 15  1  0
 11 16  2  0
 15 17  2  0
 17 18  1  0
 18 19  2  0
 19 20  1  0
 20 21  2  0
 21 15  1  0
 22 23  1  0
 23 24  2  0
 24 25  1  0
 25 26  1  0
 26 22  2  0
 19 22  1  0
 24 27  1  0
 13 28  1  0
 28 29  2  0
 29 30  1  0
 30  4  1  0
  4 31  2  0
 31 28  1  0
 30 32  1  0
 29  2  1  0
  2 33  1  0
M  END
>  <Curated_InChIs>  (2) 
InChI=1S/C22H26N6O4S/c1-13-11-18(27-26-13)14-7-9-15(10-8-14)20(29)16-5-3-4-6-17(16)21(30)25-19-12-24-28(2)22(19)33(23,31)32/h7-12,16-17H,3-6H2,1-2H3,(H,25,30)(H,26,27)(H2,23,31,32)

>  <threshold>  (2) 
5

>  <pchembl>  (2) 
4.13

>  <Classification>  (2) 
0

>  <source>  (2) 
chembl_28

>  <SMILES>  (2) 
Cc1cc(-c2ccc(C(=O)[C@@H]3CCCC[C@H]3C(=O)Nc3cnn(C)c3S(N)(=O)=O)cc2)n[nH]1

>  <InChIKey>  (2) 
IVYACETTWFJKQK-IAGOWNOFSA-N

$$$$

     RDKit          2D

 25 27  0  0  0  0  0  0  0  0999 V2000
   10.4739   -9.0764    0.0000 C   0  0  0  0  0  0  0  0  0  0  0  0
   11.2195   -8.7406    0.0000 N   0  0  0  0  0  0  0  0  0  0  0  0
   10.5578   -9.8968    0.0000 N   0  0  0  0  0  0  0  0  0  0  0  0
    9.7471   -8.6592    0.0000 S   0  0  0  0  0  0  0  0  0  0  0  0
    8.3140   -8.6602    0.0000 C   0  0  0  0  0  0  0  0  0  0  0  0
    9.0410   -9.0774    0.0000 C   0  0  0  0  0  0  0  0  0  0  0  0
   11.7778   -9.3485    0.0000 C   0  0  0  0  0  0  0  0  0  0  0  0
    7.6031   -9.0881    0.0000 C   0  0  0  0  0  0  0  0  0  0  0  0
   11.3702  -10.0607    0.0000 C   0  0  0  0  0  0  0  0  0  0  0  0
    8.3079   -7.8296    0.0000 N   0  0  0  0  0  0  0  0  0  0  0  0
    6.8763   -8.6709    0.0000 C   0  0  0  0  0  0  0  0  0  0  0  0
    9.7505   -7.8286    0.0000 O   0  0  0  0  0  0  0  0  0  0  0  0
    7.5908   -7.4220    0.0000 C   0  0  0  0  0  0  0  0  0  0  0  0
    6.8701   -7.8403    0.0000 C   0  0  0  0  0  0  0  0  0  0  0  0
    6.1605   -9.0989    0.0000 O   0  0  0  0  0  0  0  0  0  0  0  0
    4.7228   -9.1096    0.0000 C   0  0  0  0  0  0  0  0  0  0  0  0
    7.6093   -9.9187    0.0000 C   0  0  0  0  0  0  0  0  0  0  0  0
   12.6035   -9.3375    0.0000 C   0  0  0  0  0  0  0  0  0  0  0  0
   11.7835  -10.7766    0.0000 C   0  0  0  0  0  0  0  0  0  0  0  0
    3.2898   -9.1202    0.0000 O   0  0  0  0  0  0  0  0  0  0  0  0
    5.4433   -8.6816    0.0000 C   0  0  0  0  0  0  0  0  0  0  0  0
    4.0007   -8.6923    0.0000 C   0  0  0  0  0  0  0  0  0  0  0  0
    2.5630   -8.7030    0.0000 C   0  0  0  0  0  0  0  0  0  0  0  0
   13.0217  -10.0533    0.0000 C   0  0  0  0  0  0  0  0  0  0  0  0
   12.6141  -10.7704    0.0000 C   0  0  0  0  0  0  0  0  0  0  0  0
  2  1  1  0
  3  1  2  0
  4  1  1  0
  5  6  1  0
  6  4  1  0
  7  2  1  0
  8  5  2  0
  9  3  1  0
 10  5  1  0
 11  8  1  0
 12  4  1  0
 13 10  2  0
 14 13  1  0
 15 11  1  0
 16 21  1  0
 17  8  1  0
 18  7  2  0
 19  9  2  0
 20 22  1  0
 21 15  1  0
 22 16  1  0
 23 20  1  0
 24 18  1  0
 25 19  1  0
  9  7  1  0
 25 24  2  0
 14 11  2  0
M  CHG  3   2  -1   4   1  12  -1
M  END
>  <Curated_InChIs>  (3) 
InChI=1S/C18H20N3O3S/c1-13-16(19-9-8-17(13)24-11-5-10-23-2)12-25(22)18-20-14-6-3-4-7-15(14)21-18/h3-4,6-9H,5,10-12H2,1-2H3

>  <threshold>  (3) 
5

>  <pchembl>  (3) 
4.47

>  <Classification>  (3) 
0

>  <source>  (3) 
chembl_28

>  <SMILES>  (3) 
COCCCOc1ccnc(C[S+]([O-])c2nc3ccccc3[n-]2)c1C

>  <InChIKey>  (3) 
KNWNQAWYVGYXNR-UHFFFAOYSA-N

$$$$

     RDKit          2D

 29 32  0  0  0  0  0  0  0  0999 V2000
   12.6673   -8.7304    0.0000 C   0  0  0  0  0  0  0  0  0  0  0  0
   11.9105   -9.0698    0.0000 C   0  0  0  0  0  0  0  0  0  0  0  0
   11.9977   -9.8957    0.0000 C   0  0  0  0  0  0  0  0  0  0  0  0
   12.8124  -10.0665    0.0000 N   0  0  0  0  0  0  0  0  0  0  0  0
   13.2215   -9.3468    0.0000 N   0  0  0  0  0  0  0  0  0  0  0  0
   13.1535  -10.8231    0.0000 C   0  0  0  0  0  0  0  0  0  0  0  0
   12.6669  -11.4966    0.0000 C   0  0  0  0  0  0  0  0  0  0  0  0
   13.0074  -12.2527    0.0000 C   0  0  0  0  0  0  0  0  0  0  0  0
   13.8338  -12.3362    0.0000 C   0  0  0  0  0  0  0  0  0  0  0  0
   14.3190  -11.6574    0.0000 C   0  0  0  0  0  0  0  0  0  0  0  0
   13.9758  -10.9041    0.0000 C   0  0  0  0  0  0  0  0  0  0  0  0
   14.0467   -9.2577    0.0000 C   0  0  0  0  0  0  0  0  0  0  0  0
   12.8389   -7.9185    0.0000 O   0  0  0  0  0  0  0  0  0  0  0  0
   11.1905   -8.6571    0.0000 C   0  0  0  0  0  0  0  0  0  0  0  0
   10.4735   -9.0741    0.0000 C   0  0  0  0  0  0  0  0  0  0  0  0
    9.7526   -8.6608    0.0000 S   0  0  0  0  0  0  0  0  0  0  0  0
    9.0364   -9.0773    0.0000 C   0  0  0  0  0  0  0  0  0  0  0  0
    9.7500   -7.8294    0.0000 O   0  0  0  0  0  0  0  0  0  0  0  0
   11.3820  -10.4520    0.0000 O   0  0  0  0  0  0  0  0  0  0  0  0
    9.0399   -9.9040    0.0000 C   0  0  0  0  0  0  0  0  0  0  0  0
    8.3233  -10.3210    0.0000 C   0  0  0  0  0  0  0  0  0  0  0  0
    7.6026   -9.9082    0.0000 C   0  0  0  0  0  0  0  0  0  0  0  0
    7.6027   -9.0741    0.0000 C   0  0  0  0  0  0  0  0  0  0  0  0
    8.3198   -8.6607    0.0000 C   0  0  0  0  0  0  0  0  0  0  0  0
   14.5321   -9.9283    0.0000 C   0  0  0  0  0  0  0  0  0  0  0  0
   15.3565   -9.8406    0.0000 C   0  0  0  0  0  0  0  0  0  0  0  0
   15.6934   -9.0813    0.0000 C   0  0  0  0  0  0  0  0  0  0  0  0
   15.1998   -8.4087    0.0000 C   0  0  0  0  0  0  0  0  0  0  0  0
   14.3771   -8.5000    0.0000 C   0  0  0  0  0  0  0  0  0  0  0  0
  2 14  1  0
  6  7  2  0
 14 15  1  0
  2  3  1  0
 15 16  1  0
  7  8  1  0
 16 17  1  0
  3  4  1  0
 16 18  1  0
  8  9  2  0
  3 19  2  0
  4  5  1  0
 17 20  2  0
  9 10  1  0
 20 21  1  0
  5  1  1  0
 21 22  2  0
 10 11  2  0
 22 23  1  0
 11  6  1  0
 23 24  2  0
 24 17  1  0
  1  2  1  0
 12 25  2  0
  5 12  1  0
 25 26  1  0
  4  6  1  0
 26 27  2  0
  1 13  2  0
 27 28  1  0
 28 29  2  0
 29 12  1  0
M  CHG  2  16   1  18  -1
M  END
>  <Curated_InChIs>  (4) 
InChI=1S/C23H20N2O3S/c26-22-21(16-17-29(28)20-14-8-3-9-15-20)23(27)25(19-12-6-2-7-13-19)24(22)18-10-4-1-5-11-18/h1-15,21H,16-17H2

>  <threshold>  (4) 
5

>  <pchembl>  (4) 
4.96

>  <Classification>  (4) 
0

>  <source>  (4) 
chembl_28

>  <SMILES>  (4) 
O=C1C(CC[S+]([O-])c2ccccc2)C(=O)N(c2ccccc2)N1c1ccccc1

>  <InChIKey>  (4) 
MBGGBVCUIVRRBF-UHFFFAOYSA-N

$$$$

     RDKit          2D

 28 30  0  0  0  0  0  0  0  0999 V2000
   -3.1458  -13.6542    0.0000 C   0  0  0  0  0  0  0  0  0  0  0  0
   -3.7750  -13.3125    0.0000 C   0  0  0  0  0  0  0  0  0  0  0  0
   -2.5458  -13.3042    0.0000 C   0  0  0  0  0  0  0  0  0  0  0  0
   -3.1458  -14.3667    0.0000 C   0  0  0  0  0  0  0  0  0  0  0  0
   -3.7750  -12.5917    0.0000 C   0  0  0  0  0  0  0  0  0  0  0  0
   -1.9208  -13.6500    0.0000 C   0  0  0  0  0  0  0  0  0  0  0  0
   -2.5458  -12.5917    0.0000 C   0  0  0  0  0  0  0  0  0  0  0  0
    1.1417  -12.5792    0.0000 N   0  0  0  0  0  0  0  0  0  0  0  0
   -1.3208  -12.5917    0.0000 C   0  0  0  0  0  0  0  0  0  0  0  0
   -1.3083  -13.3042    0.0000 C   0  0  0  0  0  0  0  0  0  0  0  0
   -1.9250  -12.2375    0.0000 C   0  0  0  0  0  0  0  0  0  0  0  0
   -4.3750  -13.6667    0.0000 C   0  0  0  0  0  0  0  0  0  0  0  0
   -0.7083  -12.2375    0.0000 O   0  0  0  0  0  0  0  0  0  0  0  0
   -0.0875  -12.5792    0.0000 C   0  0  0  0  0  0  0  0  0  0  0  0
    0.5167  -12.2167    0.0000 C   0  0  0  0  0  0  0  0  0  0  0  0
   -3.7625  -14.7292    0.0000 C   0  0  0  0  0  0  0  0  0  0  0  0
   -4.3958  -12.2417    0.0000 C   0  0  0  0  0  0  0  0  0  0  0  0
   -3.1583  -12.2375    0.0000 C   0  0  0  0  0  0  0  0  0  0  0  0
   -2.5333  -14.7250    0.0000 C   0  0  0  0  0  0  0  0  0  0  0  0
    1.1500  -13.2792    0.0000 C   0  0  0  0  0  0  0  0  0  0  0  0
    1.7500  -12.2083    0.0000 C   0  0  0  0  0  0  0  0  0  0  0  0
   -5.0083  -13.3417    0.0000 C   0  0  0  0  0  0  0  0  0  0  0  0
   -3.7583  -15.4417    0.0000 C   0  0  0  0  0  0  0  0  0  0  0  0
   -4.3833  -11.5542    0.0000 C   0  0  0  0  0  0  0  0  0  0  0  0
   -3.1500  -11.5500    0.0000 C   0  0  0  0  0  0  0  0  0  0  0  0
   -2.5250  -15.4375    0.0000 C   0  0  0  0  0  0  0  0  0  0  0  0
   -3.1500  -15.7917    0.0000 C   0  0  0  0  0  0  0  0  0  0  0  0
   -3.7833  -11.1917    0.0000 C   0  0  0  0  0  0  0  0  0  0  0  0
  2  1  2  0
  3  1  1  0
  4  1  1  0
  5  2  1  0
  6  3  2  0
  7  3  1  0
  8 15  1  0
  9 11  1  0
 10  6  1  0
 11  7  2  0
 12  2  1  0
 13  9  1  0
 14 13  1  0
 15 14  1  0
 16  4  2  0
 17  5  2  0
 18  5  1  0
 19  4  1  0
 20  8  1  0
 21  8  1  0
 22 12  1  0
 23 16  1  0
 24 17  1  0
 25 18  2  0
 26 19  2  0
 27 26  1  0
 28 25  1  0
  9 10  2  0
 27 23  2  0
 28 24  2  0
M  END
>  <Curated_InChIs>  (5) 
InChI=1S/C26H29NO/c1-4-25(21-11-7-5-8-12-21)26(22-13-9-6-10-14-22)23-15-17-24(18-16-23)28-20-19-27(2)3/h5-18H,4,19-20H2,1-3H3

>  <threshold>  (5) 
5

>  <pchembl>  (5) 
4.63, 4.81

>  <Classification>  (5) 
0

>  <source>  (5) 
chembl_28

>  <SMILES>  (5) 
CC/C(=C(\c1ccccc1)c1ccc(OCCN(C)C)cc1)c1ccccc1

>  <InChIKey>  (5) 
NKANXQFJJICGDU-QPLCGJKRSA-N

$$$$

     RDKit          2D

 32 34  0  0  0  0  0  0  0  0999 V2000
   39.2334   -1.7747    0.0000 O   0  0  0  0  0  0  0  0  0  0  0  0
   40.0506   -1.7788    0.0000 S   0  0  0  0  0  0  0  0  0  0  0  0
   39.6456   -1.0691    0.0000 O   0  0  0  0  0  0  0  0  0  0  0  0
   38.6459   -4.2345    0.0000 C   0  0  0  0  0  0  0  0  0  0  0  0
   38.6448   -5.0540    0.0000 C   0  0  0  0  0  0  0  0  0  0  0  0
   39.3529   -5.4630    0.0000 C   0  0  0  0  0  0  0  0  0  0  0  0
   40.0625   -5.0536    0.0000 C   0  0  0  0  0  0  0  0  0  0  0  0
   40.0597   -4.2309    0.0000 C   0  0  0  0  0  0  0  0  0  0  0  0
   39.3511   -3.8256    0.0000 C   0  0  0  0  0  0  0  0  0  0  0  0
   39.3545   -6.2780    0.0000 C   0  0  0  0  0  0  0  0  0  0  0  0
   38.6451   -6.6858    0.0000 C   0  0  0  0  0  0  0  0  0  0  0  0
   38.6445   -7.5023    0.0000 N   0  0  0  0  0  0  0  0  0  0  0  0
   39.3527   -7.9119    0.0000 C   0  0  0  0  0  0  0  0  0  0  0  0
   40.0628   -7.4990    0.0000 C   0  0  0  0  0  0  0  0  0  0  0  0
   40.0599   -6.6840    0.0000 C   0  0  0  0  0  0  0  0  0  0  0  0
   39.3486   -3.0084    0.0000 C   0  0  0  0  0  0  0  0  0  0  0  0
   40.0551   -2.5977    0.0000 N   0  0  0  0  0  0  0  0  0  0  0  0
   38.6397   -2.6020    0.0000 O   0  0  0  0  0  0  0  0  0  0  0  0
   40.7592   -1.3698    0.0000 C   0  0  0  0  0  0  0  0  0  0  0  0
   40.7719   -7.9053    0.0000 Cl  0  0  0  0  0  0  0  0  0  0  0  0
   39.3536   -8.7290    0.0000 O   0  0  0  0  0  0  0  0  0  0  0  0
   37.9368   -5.4621    0.0000 O   0  0  0  0  0  0  0  0  0  0  0  0
   37.2294   -5.0529    0.0000 C   0  0  0  0  0  0  0  0  0  0  0  0
   38.6463   -9.1384    0.0000 C   0  0  0  0  0  0  0  0  0  0  0  0
   37.9387   -8.7289    0.0000 C   0  0  0  0  0  0  0  0  0  0  0  0
   37.2319   -9.1376    0.0000 C   0  0  0  0  0  0  0  0  0  0  0  0
   37.2324   -9.9557    0.0000 C   0  0  0  0  0  0  0  0  0  0  0  0
   37.9455  -10.3633    0.0000 C   0  0  0  0  0  0  0  0  0  0  0  0
   38.6494   -9.9523    0.0000 C   0  0  0  0  0  0  0  0  0  0  0  0
   39.3588  -10.3578    0.0000 F   0  0  0  0  0  0  0  0  0  0  0  0
   36.5240   -8.7295    0.0000 F   0  0  0  0  0  0  0  0  0  0  0  0
   40.7658   -3.8196    0.0000 F   0  0  0  0  0  0  0  0  0  0  0  0
  2  1  2  0
  3  2  2  0
  4  5  2  0
  5  6  1  0
  6  7  2  0
  7  8  1  0
  8  9  2  0
  9  4  1  0
 10 11  2  0
 11 12  1  0
 12 13  2  0
 13 14  1  0
 14 15  2  0
 15 10  1  0
  6 10  1  0
  9 16  1  0
 16 17  1  0
 16 18  2  0
 17  2  1  0
  2 19  1  0
 14 20  1  0
 13 21  1  0
  5 22  1  0
 22 23  1  0
 21 24  1  0
 24 25  2  0
 25 26  1  0
 26 27  2  0
 27 28  1  0
 28 29  2  0
 29 24  1  0
 29 30  1  0
 26 31  1  0
  8 32  1  0
M  END
>  <Curated_InChIs>  (6) 
InChI=1S/C20H14ClF3N2O5S/c1-30-17-8-13(19(27)26-32(2,28)29)16(24)7-12(17)10-5-14(21)20(25-9-10)31-18-6-11(22)3-4-15(18)23/h3-9H,1-2H3,(H,26,27)

>  <threshold>  (6) 
5

>  <pchembl>  (6) 
4.88

>  <Classification>  (6) 
0

>  <source>  (6) 
chembl_28

>  <SMILES>  (6) 
COc1cc(C(=O)NS(C)(=O)=O)c(F)cc1-c1cnc(Oc2cc(F)ccc2F)c(Cl)c1

>  <InChIKey>  (6) 
PPKNTGHPZNLOFG-UHFFFAOYSA-N

$$$$

     RDKit          2D

 33 37  0  0  0  0  0  0  0  0999 V2000
   38.1892  -24.7469    0.0000 C   0  0  0  0  0  0  0  0  0  0  0  0
   38.1892  -25.5641    0.0000 C   0  0  0  0  0  0  0  0  0  0  0  0
   38.8945  -25.9685    0.0000 C   0  0  0  0  0  0  0  0  0  0  0  0
   39.5998  -25.5641    0.0000 C   0  0  0  0  0  0  0  0  0  0  0  0
   39.5998  -24.7469    0.0000 C   0  0  0  0  0  0  0  0  0  0  0  0
   38.8945  -24.3341    0.0000 C   0  0  0  0  0  0  0  0  0  0  0  0
   40.3069  -25.9737    0.0000 C   0  0  0  0  0  0  0  0  0  0  0  0
   40.3087  -24.3403    0.0000 C   0  0  0  0  0  0  0  0  0  0  0  0
   41.0152  -24.7510    0.0000 N   0  0  0  0  0  0  0  0  0  0  0  0
   40.3111  -23.5232    0.0000 O   0  0  0  0  0  0  0  0  0  0  0  0
   40.3057  -26.7909    0.0000 C   0  0  0  0  0  0  0  0  0  0  0  0
   41.0152  -25.5661    0.0000 O   0  0  0  0  0  0  0  0  0  0  0  0
   39.5964  -27.1967    0.0000 C   0  0  0  0  0  0  0  0  0  0  0  0
   39.5949  -28.0132    0.0000 C   0  0  0  0  0  0  0  0  0  0  0  0
   40.3025  -28.4236    0.0000 C   0  0  0  0  0  0  0  0  0  0  0  0
   41.0132  -28.0117    0.0000 C   0  0  0  0  0  0  0  0  0  0  0  0
   41.0112  -27.1966    0.0000 C   0  0  0  0  0  0  0  0  0  0  0  0
   40.3047  -29.2439    0.0000 C   0  0  0  0  0  0  0  0  0  0  0  0
   39.6436  -29.7241    0.0000 C   0  0  0  0  0  0  0  0  0  0  0  0
   39.8960  -30.5014    0.0000 C   0  0  0  0  0  0  0  0  0  0  0  0
   40.7133  -30.5015    0.0000 N   0  0  0  0  0  0  0  0  0  0  0  0
   40.9658  -29.7243    0.0000 N   0  0  0  0  0  0  0  0  0  0  0  0
   39.4156  -31.1624    0.0000 C   0  0  0  0  0  0  0  0  0  0  0  0
   41.7241  -24.3445    0.0000 C   0  0  0  0  0  0  0  0  0  0  0  0
   42.6106  -23.3614    0.0000 N   0  0  0  0  0  0  0  0  0  0  0  0
   41.8109  -23.5291    0.0000 C   0  0  0  0  0  0  0  0  0  0  0  0
   43.0172  -24.0704    0.0000 N   0  0  0  0  0  0  0  0  0  0  0  0
   42.4683  -24.6706    0.0000 C   0  0  0  0  0  0  0  0  0  0  0  0
   42.7124  -25.4419    0.0000 C   0  0  0  0  0  0  0  0  0  0  0  0
   43.5056  -25.6191    0.0000 N   0  0  0  0  0  0  0  0  0  0  0  0
   44.0545  -25.0188    0.0000 C   0  0  0  0  0  0  0  0  0  0  0  0
   43.8102  -24.2413    0.0000 C   0  0  0  0  0  0  0  0  0  0  0  0
   42.1601  -26.0442    0.0000 O   0  0  0  0  0  0  0  0  0  0  0  0
  1  2  1  0
  1  6  1  0
  2  3  1  0
  3  4  1  0
  4  5  1  0
  5  6  1  0
  4  7  1  6
  5  8  1  1
  8  9  1  0
  8 10  2  0
  7 11  1  0
  7 12  2  0
 11 13  2  0
 13 14  1  0
 14 15  2  0
 15 16  1  0
 16 17  2  0
 17 11  1  0
 18 19  1  0
 19 20  2  0
 20 21  1  0
 21 22  1  0
 22 18  2  0
 15 18  1  0
 20 23  1  0
  9 24  1  0
 24 28  2  0
 27 25  1  0
 25 26  2  0
 26 24  1  0
 27 28  1  0
 27 32  1  0
 28 29  1  0
 29 30  1  0
 30 31  1  0
 31 32  1  0
 29 33  2  0
M  END
>  <Curated_InChIs>  (7) 
InChI=1S/C24H26N6O3/c1-14-12-19(29-28-14)15-6-8-16(9-7-15)22(31)17-4-2-3-5-18(17)23(32)27-20-13-26-30-11-10-25-24(33)21(20)30/h6-9,12-13,17-18H,2-5,10-11H2,1H3,(H,25,33)(H,27,32)(H,28,29)

>  <threshold>  (7) 
5

>  <pchembl>  (7) 
4.13

>  <Classification>  (7) 
0

>  <source>  (7) 
chembl_28

>  <SMILES>  (7) 
Cc1cc(-c2ccc(C(=O)[C@@H]3CCCC[C@H]3C(=O)Nc3cnn4c3C(=O)NCC4)cc2)n[nH]1

>  <InChIKey>  (7) 
ROTWSDMXHVGAHZ-QZTJIDSGSA-N

$$$$

     RDKit          2D

 37 40  0  0  0  0  0  0  0  0999 V2000
    6.5733  -19.4475    0.0000 N   0  0  0  0  0  0  0  0  0  0  0  0
    6.5721  -20.2670    0.0000 C   0  0  0  0  0  0  0  0  0  0  0  0
    7.2802  -20.6760    0.0000 N   0  0  0  0  0  0  0  0  0  0  0  0
    7.9898  -20.2665    0.0000 C   0  0  0  0  0  0  0  0  0  0  0  0
    7.9870  -19.4439    0.0000 C   0  0  0  0  0  0  0  0  0  0  0  0
    7.2784  -19.0386    0.0000 C   0  0  0  0  0  0  0  0  0  0  0  0
    7.2731  -18.2243    0.0000 C   0  0  0  0  0  0  0  0  0  0  0  0
    7.9812  -17.8142    0.0000 C   0  0  0  0  0  0  0  0  0  0  0  0
    7.9791  -16.9977    0.0000 C   0  0  0  0  0  0  0  0  0  0  0  0
    7.2697  -16.5904    0.0000 C   0  0  0  0  0  0  0  0  0  0  0  0
    6.5609  -17.0055    0.0000 C   0  0  0  0  0  0  0  0  0  0  0  0
    6.5664  -17.8206    0.0000 C   0  0  0  0  0  0  0  0  0  0  0  0
    8.6982  -20.6740    0.0000 N   0  0  0  0  0  0  0  0  0  0  0  0
    8.6858  -16.5874    0.0000 F   0  0  0  0  0  0  0  0  0  0  0  0
    5.8611  -18.2332    0.0000 C   0  0  0  0  0  0  0  0  0  0  0  0
    5.8505  -16.6015    0.0000 N   0  0  0  0  0  0  0  0  0  0  0  0
    5.8452  -15.7844    0.0000 C   0  0  0  0  0  0  0  0  0  0  0  0
    5.1348  -15.3804    0.0000 C   0  0  0  0  0  0  0  0  0  0  0  0
    6.5502  -15.3712    0.0000 O   0  0  0  0  0  0  0  0  0  0  0  0
    5.1328  -14.5645    0.0000 C   0  0  0  0  0  0  0  0  0  0  0  0
    4.4233  -14.1606    0.0000 C   0  0  0  0  0  0  0  0  0  0  0  0
    3.7173  -14.5738    0.0000 C   0  0  0  0  0  0  0  0  0  0  0  0
    3.7253  -15.3952    0.0000 C   0  0  0  0  0  0  0  0  0  0  0  0
    4.4353  -15.7954    0.0000 C   0  0  0  0  0  0  0  0  0  0  0  0
    3.0071  -14.1674    0.0000 C   0  0  0  0  0  0  0  0  0  0  0  0
    2.5929  -13.4629    0.0000 C   0  0  0  0  0  0  0  0  0  0  0  0
    2.1899  -14.1738    0.0000 C   0  0  0  0  0  0  0  0  0  0  0  0
    4.4444  -16.6126    0.0000 F   0  0  0  0  0  0  0  0  0  0  0  0
    8.6932  -19.0326    0.0000 O   0  0  0  0  0  0  0  0  0  0  0  0
    9.4024  -19.4385    0.0000 C   0  0  0  0  0  0  0  0  0  0  0  0
   10.1086  -19.0273    0.0000 C   0  0  0  0  0  0  0  0  0  0  0  0
   10.8178  -19.4332    0.0000 N   0  0  0  0  0  0  0  0  0  0  0  0
   10.8209  -20.2504    0.0000 C   0  0  0  0  0  0  0  0  0  0  0  0
   11.5240  -19.0219    0.0000 C   0  0  0  0  0  0  0  0  0  0  0  0
   12.2332  -19.4279    0.0000 C   0  0  0  0  0  0  0  0  0  0  0  0
   12.9394  -19.0166    0.0000 C   0  0  0  0  0  0  0  0  0  0  0  0
   11.5209  -18.2048    0.0000 O   0  0  0  0  0  0  0  0  0  0  0  0
  1  2  2  0
  2  3  1  0
  3  4  2  0
  4  5  1  0
  5  6  2  0
  6  1  1  0
  7  8  2  0
  8  9  1  0
  9 10  2  0
 10 11  1  0
 11 12  2  0
 12  7  1  0
  6  7  1  0
  4 13  1  0
  9 14  1  0
 12 15  1  0
 11 16  1  0
 16 17  1  0
 17 18  1  0
 17 19  2  0
 18 20  2  0
 20 21  1  0
 21 22  2  0
 22 23  1  0
 23 24  2  0
 24 18  1  0
 26 25  1  0
 27 26  1  0
 25 27  1  0
 22 25  1  0
 24 28  1  0
  5 29  1  0
 29 30  1  0
 30 31  1  0
 31 32  1  0
 32 33  1  0
 32 34  1  0
 34 35  1  0
 35 36  2  0
 34 37  2  0
M  END
>  <Curated_InChIs>  (8) 
InChI=1S/C27H27F2N5O3/c1-4-23(35)34(3)9-10-37-25-24(31-14-32-26(25)30)20-12-18(28)13-22(15(20)2)33-27(36)19-8-7-17(11-21(19)29)16-5-6-16/h4,7-8,11-14,16H,1,5-6,9-10H2,2-3H3,(H,33,36)(H2,30,31,32)

>  <threshold>  (8) 
5

>  <pchembl>  (8) 
5.18

>  <Classification>  (8) 
1

>  <source>  (8) 
chembl_28

>  <SMILES>  (8) 
C=CC(=O)N(C)CCOc1c(N)ncnc1-c1cc(F)cc(NC(=O)c2ccc(C3CC3)cc2F)c1C

>  <InChIKey>  (8) 
CUABMPOJOBCXJI-UHFFFAOYSA-N

$$$$

     RDKit          2D

 56 59  0  0  0  0  0  0  0  0999 V2000
    6.2042  -12.6750    0.0000 C   0  0  0  0  0  0  0  0  0  0  0  0
    6.2042  -11.9667    0.0000 C   0  0  0  0  0  0  0  0  0  0  0  0
    6.8167  -11.6125    0.0000 C   0  0  0  0  0  0  0  0  0  0  0  0
    6.8167  -10.9042    0.0000 N   0  0  0  0  0  0  0  0  0  0  0  0
    6.8167  -13.0208    0.0000 O   0  0  0  0  0  0  0  0  0  0  0  0
    8.6583  -10.5458    0.0000 O   0  0  0  0  0  0  0  0  0  0  0  0
    8.0458  -10.9000    0.0000 C   0  0  0  0  0  0  0  0  0  0  0  0
    9.2708  -10.9000    0.0000 C   0  0  0  0  0  0  0  0  0  0  0  0
    6.8125  -13.7333    0.0000 C   0  0  0  0  0  0  0  0  0  0  0  0
    7.4292  -10.5500    0.0000 C   0  0  0  0  0  0  0  0  0  0  0  0
    9.8833  -10.5458    0.0000 C   0  0  0  0  0  0  0  0  0  0  0  0
    9.2708  -11.6083    0.0000 C   0  0  0  0  0  0  0  0  0  0  0  0
    5.5875  -13.0250    0.0000 C   0  0  0  0  0  0  0  0  0  0  0  0
   10.5000  -13.0250    0.0000 C   0  0  0  0  0  0  0  0  0  0  0  0
    9.8833  -11.9625    0.0000 C   0  0  0  0  0  0  0  0  0  0  0  0
    9.8833  -12.6708    0.0000 C   0  0  0  0  0  0  0  0  0  0  0  0
    9.8833   -9.8375    0.0000 C   0  0  0  0  0  0  0  0  0  0  0  0
    6.2000  -14.0875    0.0000 C   0  0  0  0  0  0  0  0  0  0  0  0
    9.8875  -14.0875    0.0000 C   0  0  0  0  0  0  0  0  0  0  0  0
    7.2792  -14.5542    0.0000 C   0  0  0  0  0  0  0  0  0  0  0  0
    9.8875  -14.7958    0.0000 C   0  0  0  0  0  0  0  0  0  0  0  0
    5.5875  -13.7292    0.0000 C   0  0  0  0  0  0  0  0  0  0  0  0
   10.5000  -13.7333    0.0000 C   0  0  0  0  0  0  0  0  0  0  0  0
    5.5917  -11.6125    0.0000 O   0  0  0  0  0  0  0  0  0  0  0  0
    7.4333  -11.9667    0.0000 O   0  0  0  0  0  0  0  0  0  0  0  0
    8.0458  -11.6083    0.0000 O   0  0  0  0  0  0  0  0  0  0  0  0
   11.7167   -9.4875    0.0000 C   0  0  0  0  0  0  0  0  0  0  0  0
   10.4958   -9.4833    0.0000 C   0  0  0  0  0  0  0  0  0  0  0  0
    7.9875  -14.5542    0.0000 C   0  0  0  0  0  0  0  0  0  0  0  0
    5.5875  -12.3167    0.0000 O   0  0  0  0  0  0  0  0  0  0  0  0
   11.1083   -9.8417    0.0000 C   0  0  0  0  0  0  0  0  0  0  0  0
   11.1125  -12.6708    0.0000 O   0  0  0  0  0  0  0  0  0  0  0  0
   11.7208   -8.7792    0.0000 C   0  0  0  0  0  0  0  0  0  0  0  0
    9.1625  -15.1667    0.0000 C   0  0  0  0  0  0  0  0  0  0  0  0
    8.4542  -15.1667    0.0000 C   0  0  0  0  0  0  0  0  0  0  0  0
   11.1083   -8.4250    0.0000 C   0  0  0  0  0  0  0  0  0  0  0  0
    6.2042  -10.5500    0.0000 C   0  0  0  0  0  0  0  0  0  0  0  0
   10.5000  -11.6083    0.0000 O   0  0  0  0  0  0  0  0  0  0  0  0
   10.4917   -8.7792    0.0000 C   0  0  0  0  0  0  0  0  0  0  0  0
    6.1958  -14.7958    0.0000 O   0  0  0  0  0  0  0  0  0  0  0  0
    6.9208  -15.1625    0.0000 O   0  0  0  0  0  0  0  0  0  0  0  0
   12.3375   -8.4292    0.0000 Cl  0  0  0  0  0  0  0  0  0  0  0  0
   12.3292   -9.8458    0.0000 O   0  0  0  0  0  0  0  0  0  0  0  0
   10.4958  -10.9000    0.0000 C   0  0  0  0  0  0  0  0  0  0  0  0
    8.6583  -11.9625    0.0000 C   0  0  0  0  0  0  0  0  0  0  0  0
    7.4292   -9.8417    0.0000 C   0  0  0  0  0  0  0  0  0  0  0  0
    4.9750  -12.6667    0.0000 C   0  0  0  0  0  0  0  0  0  0  0  0
   10.5000  -15.1500    0.0000 C   0  0  0  0  0  0  0  0  0  0  0  0
   11.1125  -14.0875    0.0000 C   0  0  0  0  0  0  0  0  0  0  0  0
    8.1375  -15.8000    0.0000 C   0  0  0  0  0  0  0  0  0  0  0  0
    7.2708  -15.7792    0.0000 C   0  0  0  0  0  0  0  0  0  0  0  0
    5.5833  -15.1458    0.0000 C   0  0  0  0  0  0  0  0  0  0  0  0
   12.9458   -9.4917    0.0000 C   0  0  0  0  0  0  0  0  0  0  0  0
    6.2042   -9.8417    0.0000 C   0  0  0  0  0  0  0  0  0  0  0  0
   11.7250  -13.7333    0.0000 C   0  0  0  0  0  0  0  0  0  0  0  0
    6.8167   -9.4875    0.0000 C   0  0  0  0  0  0  0  0  0  0  0  0
  2  1  1  0
  3  2  1  0
  4  3  1  0
  5  1  1  0
  6  7  1  0
  7 10  1  0
  8  6  1  0
  9  5  1  6
 10  4  1  0
  8 11  1  6
 12  8  1  0
 13  1  1  0
 14 23  1  0
 15 12  1  0
 16 15  1  0
 17 11  2  0
 18 22  1  0
 19 21  2  0
 20  9  1  0
 21 34  1  0
 22 13  1  0
 23 19  1  0
 24  2  2  0
 25  3  2  0
 26  7  2  0
 27 31  1  0
 28 17  1  6
 29 20  1  0
  1 30  1  1
 31 28  1  0
 32 14  2  0
 33 36  1  0
 34 35  1  0
 35 29  1  0
 36 39  1  0
 37  4  1  0
 15 38  1  1
 39 28  1  0
 18 40  1  1
 20 41  1  6
 33 42  1  6
 27 43  1  6
 44 11  1  0
 12 45  1  1
 10 46  1  1
 13 47  1  1
 48 21  1  0
 23 49  1  6
 35 50  1  6
 51 41  1  0
 52 40  1  0
 53 43  1  0
 54 37  1  0
 55 49  1  0
 56 46  1  0
  9 18  1  0
 56 54  1  0
 14 16  1  0
 33 27  1  0
M  END
>  <Curated_InChIs>  (9) 
InChI=1S/C43H68ClNO11/c1-10-30-18-24(2)17-25(3)19-36(53-8)39-37(54-9)21-27(5)43(51,56-39)40(48)41(49)45-16-12-11-13-32(45)42(50)55-38(28(6)33(46)23-34(30)47)26(4)20-29-14-15-31(44)35(22-29)52-7/h18,20,25,27-33,35-39,46,51H,10-17,19,21-23H2,1-9H3

>  <threshold>  (9) 
5

>  <pchembl>  (9) 
5.0

>  <Classification>  (9) 
1

>  <source>  (9) 
chembl_28

>  <SMILES>  (9) 
CC[C@@H]1/C=C(\C)C[C@H](C)C[C@H](OC)[C@H]2O[C@@](O)(C(=O)C(=O)N3CCCC[C@H]3C(=O)O[C@H](/C(C)=C/[C@@H]3CC[C@H](Cl)[C@H](OC)C3)[C@H](C)[C@@H](O)CC1=O)[C@H](C)C[C@@H]2OC

>  <InChIKey>  (9) 
KASDHRXLYQOAKZ-XDSKOBMDSA-N

$$$$

     RDKit          2D

 30 33  0  0  0  0  0  0  0  0999 V2000
    2.9750   -4.2875    0.0000 N   0  0  0  0  0  0  0  0  0  0  0  0
    3.6375   -3.8000    0.0000 C   0  0  0  0  0  0  0  0  0  0  0  0
    2.5500   -3.0125    0.0000 N   0  0  0  0  0  0  0  0  0  0  0  0
    3.3750   -3.0167    0.0000 C   0  0  0  0  0  0  0  0  0  0  0  0
    2.3000   -3.8000    0.0000 C   0  0  0  0  0  0  0  0  0  0  0  0
    6.5375   -5.5167    0.0000 C   0  0  0  0  0  0  0  0  0  0  0  0
    5.8625   -5.0375    0.0000 N   0  0  0  0  0  0  0  0  0  0  0  0
    6.1125   -4.2500    0.0000 N   0  0  0  0  0  0  0  0  0  0  0  0
    7.2000   -5.0375    0.0000 N   0  0  0  0  0  0  0  0  0  0  0  0
    6.9375   -4.2500    0.0000 N   0  0  0  0  0  0  0  0  0  0  0  0
    6.5375   -6.3417    0.0000 C   0  0  0  0  0  0  0  0  0  0  0  0
    5.8250   -6.7542    0.0000 C   0  0  0  0  0  0  0  0  0  0  0  0
    2.9750   -5.1125    0.0000 C   0  0  0  0  0  0  0  0  0  0  0  0
    5.1125   -6.3500    0.0000 C   0  0  0  0  0  0  0  0  0  0  0  0
    3.7875   -2.3000    0.0000 Cl  0  0  0  0  0  0  0  0  0  0  0  0
    4.4250   -4.0542    0.0000 C   0  0  0  0  0  0  0  0  0  0  0  0
    4.4000   -6.7625    0.0000 C   0  0  0  0  0  0  0  0  0  0  0  0
    5.1000   -5.5167    0.0000 C   0  0  0  0  0  0  0  0  0  0  0  0
    3.6875   -5.5250    0.0000 C   0  0  0  0  0  0  0  0  0  0  0  0
    1.5125   -4.0542    0.0000 C   0  0  0  0  0  0  0  0  0  0  0  0
    4.4000   -5.1125    0.0000 C   0  0  0  0  0  0  0  0  0  0  0  0
    3.6875   -6.3500    0.0000 C   0  0  0  0  0  0  0  0  0  0  0  0
    7.2500   -6.7500    0.0000 C   0  0  0  0  0  0  0  0  0  0  0  0
    5.1292   -3.6375    0.0000 O   0  0  0  0  0  0  0  0  0  0  0  0
    5.8250   -7.5875    0.0000 C   0  0  0  0  0  0  0  0  0  0  0  0
    0.9000   -3.5042    0.0000 C   0  0  0  0  0  0  0  0  0  0  0  0
    0.1125   -3.7625    0.0000 C   0  0  0  0  0  0  0  0  0  0  0  0
    7.2500   -7.5792    0.0000 C   0  0  0  0  0  0  0  0  0  0  0  0
    6.5375   -8.0000    0.0000 C   0  0  0  0  0  0  0  0  0  0  0  0
   -0.5000   -3.2125    0.0000 C   0  0  0  0  0  0  0  0  0  0  0  0
  2  1  1  0
  3  5  2  0
  4  2  2  0
  5  1  1  0
  6 11  1  0
  7  6  1  0
  8  7  2  0
  9  6  2  0
 10  9  1  0
 11 12  1  0
 12 14  1  0
 13  1  1  0
 14 17  2  0
 15  4  1  0
 16  2  1  0
 17 22  1  0
 18 21  2  0
 19 13  1  0
 20  5  1  0
 21 19  1  0
 22 19  2  0
 23 11  2  0
 24 16  1  0
 25 12  2  0
 26 20  1  0
 27 26  1  0
 28 29  2  0
 29 25  1  0
 30 27  1  0
  3  4  1  0
 18 14  1  0
 23 28  1  0
  8 10  1  0
M  CHG  1  10  -1
M  END
>  <Curated_InChIs>  (10) 
InChI=1S/C22H22ClN6O/c1-2-3-8-20-24-21(23)19(14-30)29(20)13-15-9-11-16(12-10-15)17-6-4-5-7-18(17)22-25-27-28-26-22/h4-7,9-12,30H,2-3,8,13-14H2,1H3

>  <threshold>  (10) 
5

>  <pchembl>  (10) 
5.07

>  <Classification>  (10) 
1

>  <source>  (10) 
chembl_28

>  <SMILES>  (10) 
CCCCc1nc(Cl)c(CO)n1Cc1ccc(-c2ccccc2-c2nn[n-]n2)cc1

>  <InChIKey>  (10) 
MDMTUGIZSFHDIC-UHFFFAOYSA-N

$$$$
