
     RDKit          2D

 59 63  0  0  0  0  0  0  0  0999 V2000
   -0.6300   -2.6500    0.0000 C   0  0  0  0  0  0  0  0  0  0  0  0
    3.2300   -0.3900    0.0000 C   0  0  0  0  0  0  0  0  0  0  0  0
    3.2300   -1.8800    0.0000 C   0  0  0  0  0  0  0  0  0  0  0  0
   -1.9300   -1.8800    0.0000 C   0  0  0  0  0  0  0  0  0  0  0  0
    0.6600   -0.3900    0.0000 C   0  0  0  0  0  0  0  0  0  0  0  0
    0.6600   -1.8700    0.0000 C   0  0  0  0  0  0  0  0  0  0  0  0
   -2.3800   -4.2600    0.0000 C   0  0  0  0  0  0  0  0  0  0  0  0
    4.1900    0.5300    0.0000 N   0  0  0  0  0  0  0  0  0  0  0  0
   -3.0100   -2.9400    0.0000 O   0  0  0  0  0  0  0  0  0  0  0  0
    1.9500    0.3100    0.0000 C   0  0  0  0  0  0  0  0  0  0  0  0
    1.9500   -2.6500    0.0000 C   0  0  0  0  0  0  0  0  0  0  0  0
   -0.6300    0.3100    0.0000 C   0  0  0  0  0  0  0  0  0  0  0  0
   -0.9200   -4.0700    0.0000 C   0  0  0  0  0  0  0  0  0  0  0  0
   -1.9300   -0.3900    0.0000 C   0  0  0  0  0  0  0  0  0  0  0  0
   -4.3000    2.7200    0.0000 C   0  0  0  0  0  0  0  0  0  0  0  0
    4.1900    2.1300    0.0000 C   0  0  0  0  0  0  0  0  0  0  0  0
   -3.1000    3.5700    0.0000 C   0  0  0  0  0  0  0  0  0  0  0  0
   -2.2100    5.6200    0.0000 C   0  0  0  0  0  0  0  0  0  0  0  0
   -3.5200    5.0300    0.0000 C   0  0  0  0  0  0  0  0  0  0  0  0
    4.5074   -2.6667    0.0000 C   0  0  0  0  0  0  0  0  0  0  0  0
   -3.7300    1.3600    0.0000 C   0  0  0  0  0  0  0  0  0  0  0  0
    5.7441   -4.9537    0.0000 N   0  0  0  0  0  0  0  0  0  0  0  0
   -0.7000    4.9800    0.0000 C   0  0  0  0  0  0  0  0  0  0  0  0
    4.4660   -4.1670    0.0000 N   0  0  0  0  0  0  0  0  0  0  0  0
    5.4300    2.9200    0.0000 C   0  0  0  0  0  0  0  0  0  0  0  0
   -4.8700   -4.7400    0.0000 O   0  0  0  0  0  0  0  0  0  0  0  0
   -5.7879    3.1064    0.0000 O   0  0  0  0  0  0  0  0  0  0  0  0
    8.3021   -6.5212    0.0000 N   0  0  0  0  0  0  0  0  0  0  0  0
   -5.8600   -3.2000    0.0000 C   0  0  0  0  0  0  0  0  0  0  0  0
   -6.1887    4.5527    0.0000 C   0  0  0  0  0  0  0  0  0  0  0  0
   -4.6200   -1.6300    0.0000 C   0  0  0  0  0  0  0  0  0  0  0  0
   -4.9900    0.0000    0.0000 C   0  0  0  0  0  0  0  0  0  0  0  0
    3.9200    5.5200    0.0000 C   0  0  0  0  0  0  0  0  0  0  0  0
   -0.1213   -4.9656    0.0000 O   0  0  0  0  0  0  0  0  0  0  0  0
    5.4300    4.5000    0.0000 C   0  0  0  0  0  0  0  0  0  0  0  0
    3.1522    2.7324    0.0000 O   0  0  0  0  0  0  0  0  0  0  0  0
    5.7049   -6.4533    0.0000 C   0  0  0  0  0  0  0  0  0  0  0  0
    7.0624   -4.2380    0.0000 C   0  0  0  0  0  0  0  0  0  0  0  0
    0.8100    5.4600    0.0000 C   0  0  0  0  0  0  0  0  0  0  0  0
    2.2200    4.6900    0.0000 C   0  0  0  0  0  0  0  0  0  0  0  0
   -7.3502    4.8541    0.0000 O   0  0  0  0  0  0  0  0  0  0  0  0
    1.9500    1.5100    0.0000 O   0  0  0  0  0  0  0  0  0  0  0  0
    1.9500   -3.8500    0.0000 O   0  0  0  0  0  0  0  0  0  0  0  0
   -0.6300    1.5100    0.0000 O   0  0  0  0  0  0  0  0  0  0  0  0
    8.3413   -5.0218    0.0000 C   0  0  0  0  0  0  0  0  0  0  0  0
    6.9839   -7.2370    0.0000 C   0  0  0  0  0  0  0  0  0  0  0  0
   -4.6058    5.5410    0.0000 O   0  0  0  0  0  0  0  0  0  0  0  0
   -0.7000    3.7800    0.0000 O   0  0  0  0  0  0  0  0  0  0  0  0
   -2.2267   -5.4502    0.0000 C   0  0  0  0  0  0  0  0  0  0  0  0
   -2.9674    0.2131    0.0000 C   0  0  0  0  0  0  0  0  0  0  0  0
   -1.9516    3.2220    0.0000 C   0  0  0  0  0  0  0  0  0  0  0  0
   -2.2100    6.8200    0.0000 C   0  0  0  0  0  0  0  0  0  0  0  0
   -6.5219    0.1638    0.0000 O   0  0  0  0  0  0  0  0  0  0  0  0
   -2.5544    1.1190    0.0000 C   0  0  0  0  0  0  0  0  0  0  0  0
    9.3253   -7.1482    0.0000 C   0  0  0  0  0  0  0  0  0  0  0  0
    6.5322    2.4455    0.0000 C   0  0  0  0  0  0  0  0  0  0  0  0
   -5.3472    5.4082    0.0000 C   0  0  0  0  0  0  0  0  0  0  0  0
    0.8100    6.6600    0.0000 C   0  0  0  0  0  0  0  0  0  0  0  0
   -7.0081    1.2608    0.0000 C   0  0  0  0  0  0  0  0  0  0  0  0
  2  3  1  0
  3 11  2  0
  4  1  2  0
  5  6  2  0
  6  1  1  0
  7 13  1  0
  8  2  1  0
  9  4  1  0
 10  5  1  0
 11  6  1  0
 12  5  1  0
 13  1  1  0
 14  4  1  0
 15 21  1  0
 16  8  1  0
 17 15  1  0
 18 19  1  0
 19 17  1  0
 20  3  1  0
 21 32  1  0
 22 24  1  0
 23 18  1  0
 24 20  2  0
 25 16  1  0
 26  7  1  0
 15 27  1  1
 28 45  1  0
 29 26  1  0
 30 27  1  0
 31 29  2  0
 32 31  1  0
 33 35  1  0
 34 13  2  0
 35 25  2  0
 36 16  2  0
 37 22  1  0
 38 22  1  0
 39 40  1  0
 40 33  2  0
 41 30  2  0
 42 10  1  0
 43 11  1  0
 44 12  1  0
 45 38  1  0
 46 37  1  0
 19 47  1  6
 23 48  1  6
  7 49  1  6
 50 14  1  0
 17 51  1  1
 18 52  1  6
 32 53  1  6
 21 54  1  6
 55 28  1  0
 56 25  1  0
 57 30  1  0
 39 58  1  1
 59 53  1  0
 12 14  2  0
  9  7  1  0
 10  2  2  0
 46 28  1  0
 39 23  1  0
M  END
>  <Curated_InChIs>  (1) 
InChI=1S/C43H58N4O12/c1-21-12-11-13-22(2)42(55)45-33-28(20-44-47-17-15-46(9)16-18-47)37(52)30-31(38(33)53)36(51)26(6)40-32(30)41(54)43(8,59-40)57-19-14-29(56-10)23(3)39(58-27(7)48)25(5)35(50)24(4)34(21)49/h11-14,19-21,23-25,29,34-35,39,49-53H,15-18H2,1-10H3,(H,45,55)

>  <threshold>  (1) 
5

>  <pchembl>  (1) 
4.16

>  <Classification>  (1) 
0

>  <source>  (1) 
chembl_28

>  <SMILES>  (1) 
CO[C@H]1/C=C/O[C@@]2(C)Oc3c(C)c(O)c4c(O)c(c(/C=N/N5CCN(C)CC5)c(O)c4c3C2=O)NC(=O)/C(C)=C\C=C\[C@H](C)[C@H](O)[C@@H](C)[C@@H](O)[C@@H](C)[C@H](OC(C)=O)[C@@H]1C

>  <InChIKey>  (1) 
JQXXHWHPUNPDRT-WLSIYKJHSA-N

$$$$

     RDKit          2D

 20 21  0  0  0  0  0  0  0  0999 V2000
   -3.9806   -2.0606    0.0000 C   0  0  0  0  0  0  0  0  0  0  0  0
   -3.9819   -2.8893    0.0000 C   0  0  0  0  0  0  0  0  0  0  0  0
   -3.2679   -3.3027    0.0000 C   0  0  0  0  0  0  0  0  0  0  0  0
   -2.5523   -2.8888    0.0000 C   0  0  0  0  0  0  0  0  0  0  0  0
   -2.5554   -2.0566    0.0000 C   0  0  0  0  0  0  0  0  0  0  0  0
   -3.2699   -1.6472    0.0000 C   0  0  0  0  0  0  0  0  0  0  0  0
   -1.8390   -1.6406    0.0000 C   0  0  0  0  0  0  0  0  0  0  0  0
   -1.1238   -2.0507    0.0000 C   0  0  0  0  0  0  0  0  0  0  0  0
   -1.8424   -0.8145    0.0000 O   0  0  0  0  0  0  0  0  0  0  0  0
   -4.6988   -1.6478    0.0000 O   0  0  0  0  0  0  0  0  0  0  0  0
   -4.7004   -3.3017    0.0000 O   0  0  0  0  0  0  0  0  0  0  0  0
   -3.2673   -4.1321    0.0000 N   0  0  0  0  0  0  0  0  0  0  0  0
   -3.9809   -4.5449    0.0000 O   0  0  0  0  0  0  0  0  0  0  0  0
   -2.5538   -4.5453    0.0000 O   0  0  0  0  0  0  0  0  0  0  0  0
   -1.1240   -2.8741    0.0000 C   0  0  0  0  0  0  0  0  0  0  0  0
   -0.4051   -3.2842    0.0000 C   0  0  0  0  0  0  0  0  0  0  0  0
    0.3077   -2.8681    0.0000 C   0  0  0  0  0  0  0  0  0  0  0  0
    0.3014   -2.0374    0.0000 C   0  0  0  0  0  0  0  0  0  0  0  0
   -0.4136   -1.6315    0.0000 C   0  0  0  0  0  0  0  0  0  0  0  0
    1.0236   -3.2772    0.0000 C   0  0  0  0  0  0  0  0  0  0  0  0
  1 10  1  0
  2  3  2  0
  2 11  1  0
  5  6  1  0
  6  1  2  0
  1  2  1  0
 12 13  1  0
 12 14  2  0
  3 12  1  0
  5  7  1  0
  8 15  2  0
  3  4  1  0
 15 16  1  0
  7  8  1  0
 16 17  2  0
 17 18  1  0
  7  9  2  0
 18 19  2  0
 19  8  1  0
  4  5  2  0
 17 20  1  0
M  CHG  2  12   1  13  -1
M  END
>  <Curated_InChIs>  (2) 
InChI=1S/C14H11NO5/c1-8-2-4-9(5-3-8)13(17)10-6-11(15(19)20)14(18)12(16)7-10/h2-7,16,18H,1H3

>  <threshold>  (2) 
5

>  <pchembl>  (2) 
4.07

>  <Classification>  (2) 
0

>  <source>  (2) 
chembl_28

>  <SMILES>  (2) 
Cc1ccc(C(=O)c2cc(O)c(O)c([N+](=O)[O-])c2)cc1

>  <InChIKey>  (2) 
MIQPIUSUKVNLNT-UHFFFAOYSA-N

$$$$

     RDKit          2D

 28 30  0  0  0  0  0  0  0  0999 V2000
   -1.2500   -3.8417    0.0000 S   0  0  0  0  0  0  0  0  0  0  0  0
   -1.9708   -3.4292    0.0000 N   0  0  0  0  0  0  0  0  0  0  0  0
    2.8250   -0.0417    0.0000 C   0  0  0  0  0  0  0  0  0  0  0  0
    2.4042    0.6708    0.0000 C   0  0  0  0  0  0  0  0  0  0  0  0
   -0.5375   -3.4292    0.0000 C   0  0  0  0  0  0  0  0  0  0  0  0
    2.4250   -2.1792    0.0000 N   0  0  0  0  0  0  0  0  0  0  0  0
    1.6000   -2.1792    0.0000 N   0  0  0  0  0  0  0  0  0  0  0  0
   -2.6833   -3.8500    0.0000 C   0  0  0  0  0  0  0  0  0  0  0  0
   -1.9708   -4.2500    0.0000 O   0  0  0  0  0  0  0  0  0  0  0  0
   -0.5375   -4.2542    0.0000 O   0  0  0  0  0  0  0  0  0  0  0  0
    3.6542   -0.0292    0.0000 C   0  0  0  0  0  0  0  0  0  0  0  0
    2.4167   -0.7542    0.0000 C   0  0  0  0  0  0  0  0  0  0  0  0
   -3.3958   -3.4375    0.0000 N   0  0  0  0  0  0  0  0  0  0  0  0
    1.5792    0.6625    0.0000 O   0  0  0  0  0  0  0  0  0  0  0  0
    2.8125    1.3875    0.0000 O   0  0  0  0  0  0  0  0  0  0  0  0
    2.8292   -1.4667    0.0000 C   0  0  0  0  0  0  0  0  0  0  0  0
   -0.5458   -2.6042    0.0000 C   0  0  0  0  0  0  0  0  0  0  0  0
    0.1750   -3.8417    0.0000 C   0  0  0  0  0  0  0  0  0  0  0  0
    4.0667   -0.7500    0.0000 C   0  0  0  0  0  0  0  0  0  0  0  0
    0.8875   -2.6000    0.0000 C   0  0  0  0  0  0  0  0  0  0  0  0
    3.6542   -1.4667    0.0000 C   0  0  0  0  0  0  0  0  0  0  0  0
    0.8875   -3.4250    0.0000 C   0  0  0  0  0  0  0  0  0  0  0  0
    0.1625   -2.1917    0.0000 C   0  0  0  0  0  0  0  0  0  0  0  0
    4.0542    0.6833    0.0000 O   0  0  0  0  0  0  0  0  0  0  0  0
   -4.1083   -3.8500    0.0000 C   0  0  0  0  0  0  0  0  0  0  0  0
   -2.6833   -4.6792    0.0000 C   0  0  0  0  0  0  0  0  0  0  0  0
   -4.1083   -4.6792    0.0000 C   0  0  0  0  0  0  0  0  0  0  0  0
   -3.3958   -5.0917    0.0000 C   0  0  0  0  0  0  0  0  0  0  0  0
  2  1  1  0
  3 12  2  0
  4  3  1  0
  5  1  1  0
  6  7  2  0
  7 20  1  0
  8  2  1  0
  9  1  2  0
 10  1  2  0
 11 19  2  0
 12 16  1  0
 13  8  2  0
 14  4  1  0
 15  4  2  0
 16  6  1  0
 17  5  2  0
 18  5  1  0
 19 21  1  0
 20 22  1  0
 21 16  2  0
 22 18  2  0
 23 17  1  0
 24 11  1  0
 25 13  1  0
 26  8  1  0
 27 28  1  0
 28 26  2  0
 20 23  2  0
 25 27  2  0
  3 11  1  0
M  END
>  <Curated_InChIs>  (3) 
InChI=1S/C18H14N4O5S/c23-16-9-6-13(11-15(16)18(24)25)21-20-12-4-7-14(8-5-12)28(26,27)22-17-3-1-2-10-19-17/h1-11,23H,(H,19,22)(H,24,25)

>  <threshold>  (3) 
5

>  <pchembl>  (3) 
4.84

>  <Classification>  (3) 
0

>  <source>  (3) 
chembl_28

>  <SMILES>  (3) 
O=C(O)c1cc(/N=N/c2ccc(S(=O)(=O)Nc3ccccn3)cc2)ccc1O

>  <InChIKey>  (3) 
NCEXYHBECQHGNR-QZQOTICOSA-N

$$$$
