6282
     RDKit          2D

 38 39  0  0  0  0  0  0  0  0999 V2000
    3.2320    0.0896    0.0000 Br  0  0  0  0  0  0  0  0  0  0  0  0
    3.7320   -3.7764    0.0000 Br  0  0  0  0  0  0  0  0  0  0  0  0
    2.0000   -0.7764    0.0000 Br  0  0  0  0  0  0  0  0  0  0  0  0
    2.0000   -2.7764    0.0000 Br  0  0  0  0  0  0  0  0  0  0  0  0
    8.7065   -2.3862    0.0000 S   0  0  0  0  0  0  0  0  0  0  0  0
    6.2704    2.4154    0.0000 S   0  0  0  0  0  0  0  0  0  0  0  0
    6.6334    4.1090    0.0000 Na  0  0  0  0  0 15  0  0  0  0  0  0
    8.8845   -4.1090    0.0000 Na  0  0  0  0  0 15  0  0  0  0  0  0
    6.1279   -1.7764    0.0000 O   0  0  0  0  0  0  0  0  0  0  0  0
    5.8550   -3.5317    0.0000 O   0  0  0  0  0  0  0  0  0  0  0  0
    9.5231   -0.5605    0.0000 O   0  0  0  0  0  0  0  0  0  0  0  0
    4.3148    2.8347    0.0000 O   0  0  0  0  0  0  0  0  0  0  0  0
    9.2928   -3.1962    0.0000 O   0  0  0  0  0  0  0  0  0  0  0  0
    6.9408    3.1574    0.0000 O   0  0  0  0  0  0  0  0  0  0  0  0
    7.8964   -2.9725    0.0000 O   0  0  0  0  0  0  0  0  0  0  0  0
    9.5165   -1.7998    0.0000 O   0  0  0  0  0  0  0  0  0  0  0  0
    5.5284    3.0859    0.0000 O   0  0  0  0  0  0  0  0  0  0  0  0
    7.0124    1.7450    0.0000 O   0  0  0  0  0  0  0  0  0  0  0  0
    5.5443   -0.9717    0.0000 C   0  0  0  0  0  0  0  0  0  0  0  0
    4.5981   -1.2764    0.0000 C   0  0  0  0  0  0  0  0  0  0  0  0
    6.5390   -0.8689    0.0000 C   0  0  0  0  0  0  0  0  0  0  0  0
    5.2369   -0.0201    0.0000 C   0  0  0  0  0  0  0  0  0  0  0  0
    4.5981   -2.2764    0.0000 C   0  0  0  0  0  0  0  0  0  0  0  0
    5.5443   -2.5812    0.0000 C   0  0  0  0  0  0  0  0  0  0  0  0
    3.7320   -0.7764    0.0000 C   0  0  0  0  0  0  0  0  0  0  0  0
    7.1254   -1.6789    0.0000 C   0  0  0  0  0  0  0  0  0  0  0  0
    5.9073    0.7219    0.0000 C   0  0  0  0  0  0  0  0  0  0  0  0
    6.9473    0.0439    0.0000 C   0  0  0  0  0  0  0  0  0  0  0  0
    4.2591    0.1895    0.0000 C   0  0  0  0  0  0  0  0  0  0  0  0
    3.7320   -2.7764    0.0000 C   0  0  0  0  0  0  0  0  0  0  0  0
    8.1201   -1.5761    0.0000 C   0  0  0  0  0  0  0  0  0  0  0  0
    5.6000    1.6735    0.0000 C   0  0  0  0  0  0  0  0  0  0  0  0
    2.8660   -1.2764    0.0000 C   0  0  0  0  0  0  0  0  0  0  0  0
    2.8660   -2.2764    0.0000 C   0  0  0  0  0  0  0  0  0  0  0  0
    7.9420    0.1468    0.0000 C   0  0  0  0  0  0  0  0  0  0  0  0
    3.9518    1.1411    0.0000 C   0  0  0  0  0  0  0  0  0  0  0  0
    8.5284   -0.6633    0.0000 C   0  0  0  0  0  0  0  0  0  0  0  0
    4.6222    1.8831    0.0000 C   0  0  0  0  0  0  0  0  0  0  0  0
  1 25  1  0
  2 30  1  0
  3 33  1  0
  4 34  1  0
  5 13  1  0
  5 15  2  0
  5 16  2  0
  5 31  1  0
  6 14  1  0
  6 17  2  0
  6 18  2  0
  6 32  1  0
  9 19  1  0
  9 24  1  0
 10 24  2  0
 11 37  1  0
 12 38  1  0
 19 20  1  0
 19 21  1  0
 19 22  1  0
 20 23  2  0
 20 25  1  0
 21 26  2  0
 21 28  1  0
 22 27  2  0
 22 29  1  0
 23 24  1  0
 23 30  1  0
 25 33  2  0
 26 31  1  0
 27 32  1  0
 28 35  2  0
 29 36  2  0
 30 34  2  0
 31 37  2  0
 32 38  2  0
 33 34  1  0
 35 37  1  0
 36 38  1  0
M  CHG  4   7   1   8   1  13  -1  14  -1
M  END
>  <Curated_InChIs>  (1) 
InChI=1S/C20H10Br4O10S2.2Na/c21-15-13-14(16(22)18(24)17(15)23)20(34-19(13)27,7-1-3-9(25)11(5-7)35(28,29)30)8-2-4-10(26)12(6-8)36(31,32)33;;/h1-6,25-26H,(H,28,29,30)(H,31,32,33);;

>  <PUBCHEM_IUPAC_NAME>  (1) 
disodium;2-hydroxy-5-[4,5,6,7-tetrabromo-1-(4-hydroxy-3-sulfonatophenyl)-3-oxo-2-benzofuran-1-yl]benzenesulfonate

>  <PUBCHEM_COMPOUND_CID>  (1) 
6282

>  <acvalue>  (1) 
0.05

>  <Classification>  (1) 
1

>  <SMILES>  (1) 
O=C1OC(c2ccc(O)c(S(=O)(=O)[O-])c2)(c2ccc(O)c(S(=O)(=O)[O-])c2)c2c(Br)c(Br)c(Br)c(Br)c21.[Na+].[Na+]

>  <InChIKey>  (1) 
GHAFORRTMVIXHS-UHFFFAOYSA-L

$$$$
70680954
     RDKit          2D

 82 88  0  0  1  0  0  0  0  0999 V2000
    8.1755   12.3594    0.0000 F   0  0  0  0  0  0  0  0  0  0  0  0
    8.1755    0.0000    0.0000 F   0  0  0  0  0  0  0  0  0  0  0  0
    4.5133   16.0201    0.0000 O   0  0  0  0  0  0  0  0  0  0  0  0
    4.5133    3.6607    0.0000 O   0  0  0  0  0  0  0  0  0  0  0  0
    2.8191   16.3802    0.0000 O   0  0  0  0  0  0  0  0  0  0  0  0
    2.8191    4.0208    0.0000 O   0  0  0  0  0  0  0  0  0  0  0  0
   10.2578   18.6027    0.0000 O   0  0  0  0  0  0  0  0  0  0  0  0
   10.2578    6.2433    0.0000 O   0  0  0  0  0  0  0  0  0  0  0  0
    0.5897   18.3876    0.0000 O   0  0  0  0  0  0  0  0  0  0  0  0
    0.5897    6.0282    0.0000 O   0  0  0  0  0  0  0  0  0  0  0  0
    1.1249   16.7403    0.0000 O   0  0  0  0  0  0  0  0  0  0  0  0
    1.1249    4.3810    0.0000 O   0  0  0  0  0  0  0  0  0  0  0  0
    7.3665   16.9472    0.0000 N   0  0  0  0  0  0  0  0  0  0  0  0
    7.3665    4.5878    0.0000 N   0  0  0  0  0  0  0  0  0  0  0  0
    8.8565   19.6208    0.0000 N   0  0  0  0  0  0  0  0  0  0  0  0
    8.8565    7.2614    0.0000 N   0  0  0  0  0  0  0  0  0  0  0  0
    7.6755   17.8982    0.0000 C   0  0  0  0  0  0  0  0  0  0  0  0
    7.6755    5.5388    0.0000 C   0  0  0  0  0  0  0  0  0  0  0  0
    6.4154   16.6382    0.0000 C   0  0  0  0  0  0  0  0  0  0  0  0
    6.4154    4.2788    0.0000 C   0  0  0  0  0  0  0  0  0  0  0  0
    8.1755   16.3594    0.0000 C   0  0  0  0  0  0  0  0  0  0  0  0
    8.1755    4.0000    0.0000 C   0  0  0  0  0  0  0  0  0  0  0  0
    7.0877   18.7072    0.0000 C   0  0  0  0  0  0  0  0  0  0  0  0
    7.0877    6.3479    0.0000 C   0  0  0  0  0  0  0  0  0  0  0  0
    8.6755   17.8982    0.0000 C   0  0  0  0  0  0  0  0  0  0  0  0
    8.6755    5.5388    0.0000 C   0  0  0  0  0  0  0  0  0  0  0  0
    5.6723   17.3073    0.0000 C   0  0  0  0  0  0  0  0  0  0  0  0
    5.6723    4.9479    0.0000 C   0  0  0  0  0  0  0  0  0  0  0  0
    8.9845   16.9472    0.0000 C   0  0  0  0  0  0  0  0  0  0  0  0
    8.9845    4.5878    0.0000 C   0  0  0  0  0  0  0  0  0  0  0  0
    4.7212   16.9983    0.0000 C   0  0  0  0  0  0  0  0  0  0  0  0
    4.7212    4.6389    0.0000 C   0  0  0  0  0  0  0  0  0  0  0  0
    3.9781   17.6674    0.0000 C   0  0  0  0  0  0  0  0  0  0  0  0
    3.9781    5.3080    0.0000 C   0  0  0  0  0  0  0  0  0  0  0  0
    8.1755   15.3594    0.0000 C   0  0  0  0  0  0  0  0  0  0  0  0
    8.1755    3.0000    0.0000 C   0  0  0  0  0  0  0  0  0  0  0  0
    6.0932   18.6027    0.0000 C   0  0  0  0  0  0  0  0  0  0  0  0
    7.4944   19.6208    0.0000 C   0  0  0  0  0  0  0  0  0  0  0  0
    6.0932    6.2433    0.0000 C   0  0  0  0  0  0  0  0  0  0  0  0
    7.4944    7.2614    0.0000 C   0  0  0  0  0  0  0  0  0  0  0  0
    9.9355   16.6382    0.0000 C   0  0  0  0  0  0  0  0  0  0  0  0
    9.9355    4.2788    0.0000 C   0  0  0  0  0  0  0  0  0  0  0  0
    3.0270   17.3584    0.0000 C   0  0  0  0  0  0  0  0  0  0  0  0
    3.0270    4.9990    0.0000 C   0  0  0  0  0  0  0  0  0  0  0  0
    9.2633   18.7072    0.0000 C   0  0  0  0  0  0  0  0  0  0  0  0
    9.2633    6.3479    0.0000 C   0  0  0  0  0  0  0  0  0  0  0  0
    9.0415   14.8594    0.0000 C   0  0  0  0  0  0  0  0  0  0  0  0
    7.3094    2.5000    0.0000 C   0  0  0  0  0  0  0  0  0  0  0  0
    7.3094   14.8594    0.0000 C   0  0  0  0  0  0  0  0  0  0  0  0
    9.0415    2.5000    0.0000 C   0  0  0  0  0  0  0  0  0  0  0  0
    2.2839   18.0275    0.0000 C   0  0  0  0  0  0  0  0  0  0  0  0
    2.2839    5.6681    0.0000 C   0  0  0  0  0  0  0  0  0  0  0  0
   10.1435   15.6600    0.0000 C   0  0  0  0  0  0  0  0  0  0  0  0
   10.6787    4.9479    0.0000 C   0  0  0  0  0  0  0  0  0  0  0  0
   10.6787   17.3073    0.0000 C   0  0  0  0  0  0  0  0  0  0  0  0
   10.1435    3.3006    0.0000 C   0  0  0  0  0  0  0  0  0  0  0  0
    9.0415   13.8594    0.0000 C   0  0  0  0  0  0  0  0  0  0  0  0
    7.3094    1.5000    0.0000 C   0  0  0  0  0  0  0  0  0  0  0  0
    7.3094   13.8594    0.0000 C   0  0  0  0  0  0  0  0  0  0  0  0
    9.0415    1.5000    0.0000 C   0  0  0  0  0  0  0  0  0  0  0  0
   11.0945   15.3510    0.0000 C   0  0  0  0  0  0  0  0  0  0  0  0
   11.6298    4.6389    0.0000 C   0  0  0  0  0  0  0  0  0  0  0  0
   11.6298   16.9983    0.0000 C   0  0  0  0  0  0  0  0  0  0  0  0
   11.0945    2.9916    0.0000 C   0  0  0  0  0  0  0  0  0  0  0  0
    8.1755   13.3594    0.0000 C   0  0  0  0  0  0  0  0  0  0  0  0
    8.1755    1.0000    0.0000 C   0  0  0  0  0  0  0  0  0  0  0  0
    9.4443   20.4298    0.0000 C   0  0  0  0  0  0  0  0  0  0  0  0
    9.4443    8.0704    0.0000 C   0  0  0  0  0  0  0  0  0  0  0  0
   11.8377   16.0201    0.0000 C   0  0  0  0  0  0  0  0  0  0  0  0
   11.8377    3.6607    0.0000 C   0  0  0  0  0  0  0  0  0  0  0  0
    1.3328   17.7185    0.0000 C   0  0  0  0  0  0  0  0  0  0  0  0
    1.3328    5.3591    0.0000 C   0  0  0  0  0  0  0  0  0  0  0  0
   10.4388   20.3253    0.0000 C   0  0  0  0  0  0  0  0  0  0  0  0
   10.4388    7.9659    0.0000 C   0  0  0  0  0  0  0  0  0  0  0  0
    9.0376   21.3433    0.0000 C   0  0  0  0  0  0  0  0  0  0  0  0
    9.0376    8.9840    0.0000 C   0  0  0  0  0  0  0  0  0  0  0  0
   11.0266   21.1343    0.0000 C   0  0  0  0  0  0  0  0  0  0  0  0
   11.0266    8.7749    0.0000 C   0  0  0  0  0  0  0  0  0  0  0  0
    9.6254   22.1524    0.0000 C   0  0  0  0  0  0  0  0  0  0  0  0
    9.6254    9.7930    0.0000 C   0  0  0  0  0  0  0  0  0  0  0  0
   10.6199   22.0478    0.0000 C   0  0  0  0  0  0  0  0  0  0  0  0
   10.6199    9.6885    0.0000 C   0  0  0  0  0  0  0  0  0  0  0  0
  1 65  1  0
  2 66  1  0
 31  3  1  1
 32  4  1  1
 43  5  1  1
 44  6  1  1
  7 45  2  0
  8 46  2  0
  9 71  1  0
 10 72  1  0
 11 71  2  0
 12 72  2  0
 13 17  1  0
 13 19  1  0
 13 21  1  0
 14 18  1  0
 14 20  1  0
 14 22  1  0
 15 45  1  0
 15 67  1  0
 16 46  1  0
 16 68  1  0
 17 23  1  0
 17 25  2  0
 18 24  1  0
 18 26  2  0
 19 27  1  0
 20 28  1  0
 21 29  2  0
 21 35  1  0
 22 30  2  0
 22 36  1  0
 23 37  1  0
 23 38  1  0
 24 39  1  0
 24 40  1  0
 25 29  1  0
 25 45  1  0
 26 30  1  0
 26 46  1  0
 27 31  1  0
 28 32  1  0
 29 41  1  0
 30 42  1  0
 31 33  1  0
 32 34  1  0
 33 43  1  0
 34 44  1  0
 35 47  2  0
 35 49  1  0
 36 48  2  0
 36 50  1  0
 41 53  2  0
 41 55  1  0
 42 54  2  0
 42 56  1  0
 43 51  1  0
 44 52  1  0
 47 57  1  0
 48 58  1  0
 49 59  2  0
 50 60  2  0
 51 71  1  0
 52 72  1  0
 53 61  1  0
 54 62  1  0
 55 63  2  0
 56 64  2  0
 57 65  2  0
 58 66  2  0
 59 65  1  0
 60 66  1  0
 61 69  2  0
 62 70  2  0
 63 69  1  0
 64 70  1  0
 67 73  2  0
 67 75  1  0
 68 74  2  0
 68 76  1  0
 73 77  1  0
 74 78  1  0
 75 79  2  0
 76 80  2  0
 77 81  2  0
 78 82  2  0
 79 81  1  0
 80 82  1  0
M  END
>  <Curated_InChIs>  (2) 
InChI=1S/2C33H35FN2O5/c2*1-21(2)31-30(33(41)35-25-11-7-4-8-12-25)29(22-9-5-3-6-10-22)32(23-13-15-24(34)16-14-23)36(31)18-17-26(37)19-27(38)20-28(39)40/h2*3-16,21,26-27,37-38H,17-20H2,1-2H3,(H,35,41)(H,39,40)

>  <PUBCHEM_IUPAC_NAME>  (2) 
(3R,5R)-7-[2-(4-fluorophenyl)-3-phenyl-4-(phenylcarbamoyl)-5-propan-2-ylpyrrol-1-yl]-3,5-dihydroxyheptanoic acid

>  <PUBCHEM_COMPOUND_CID>  (2) 
70680954

>  <acvalue>  (2) 
0.87

>  <Classification>  (2) 
1

>  <SMILES>  (2) 
CC(C)c1c(C(=O)Nc2ccccc2)c(-c2ccccc2)c(-c2ccc(F)cc2)n1CC[C@@H](O)C[C@@H](O)CC(=O)O.CC(C)c1c(C(=O)Nc2ccccc2)c(-c2ccccc2)c(-c2ccc(F)cc2)n1CC[C@@H](O)C[C@@H](O)CC(=O)O

>  <InChIKey>  (2) 
BJGBAZAEWKCPHZ-MQSFZEHASA-N

$$$$
5280961
     RDKit          2D

 20 22  0  0  0  0  0  0  0  0999 V2000
    5.5301   -1.4279    0.0000 O   0  0  0  0  0  0  0  0  0  0  0  0
    3.7817    1.6067    0.0000 O   0  0  0  0  0  0  0  0  0  0  0  0
    5.5301    1.5721    0.0000 O   0  0  0  0  0  0  0  0  0  0  0  0
    2.0000   -1.4521    0.0000 O   0  0  0  0  0  0  0  0  0  0  0  0
    9.8602    2.0721    0.0000 O   0  0  0  0  0  0  0  0  0  0  0  0
    4.6641    0.0721    0.0000 C   0  0  0  0  0  0  0  0  0  0  0  0
    6.3961    0.0721    0.0000 C   0  0  0  0  0  0  0  0  0  0  0  0
    4.6641   -0.9279    0.0000 C   0  0  0  0  0  0  0  0  0  0  0  0
    5.5301    0.5721    0.0000 C   0  0  0  0  0  0  0  0  0  0  0  0
    7.2622    0.5721    0.0000 C   0  0  0  0  0  0  0  0  0  0  0  0
    3.7702    0.6067    0.0000 C   0  0  0  0  0  0  0  0  0  0  0  0
    6.3961   -0.9279    0.0000 C   0  0  0  0  0  0  0  0  0  0  0  0
    3.7702   -1.4626    0.0000 C   0  0  0  0  0  0  0  0  0  0  0  0
    2.8641    0.0929    0.0000 C   0  0  0  0  0  0  0  0  0  0  0  0
    2.8641   -0.9487    0.0000 C   0  0  0  0  0  0  0  0  0  0  0  0
    8.1282    0.0721    0.0000 C   0  0  0  0  0  0  0  0  0  0  0  0
    7.2622    1.5721    0.0000 C   0  0  0  0  0  0  0  0  0  0  0  0
    8.9942    0.5721    0.0000 C   0  0  0  0  0  0  0  0  0  0  0  0
    8.1282    2.0721    0.0000 C   0  0  0  0  0  0  0  0  0  0  0  0
    8.9942    1.5721    0.0000 C   0  0  0  0  0  0  0  0  0  0  0  0
  1  8  1  0
  1 12  1  0
  2 11  1  0
  3  9  2  0
  4 15  1  0
  5 20  1  0
  6  8  2  0
  6  9  1  0
  6 11  1  0
  7  9  1  0
  7 10  1  0
  7 12  2  0
  8 13  1  0
 10 16  2  0
 10 17  1  0
 11 14  2  0
 13 15  2  0
 14 15  1  0
 16 18  1  0
 17 19  2  0
 18 20  2  0
 19 20  1  0
M  END
>  <Curated_InChIs>  (3) 
InChI=1S/C15H10O5/c16-9-3-1-8(2-4-9)11-7-20-13-6-10(17)5-12(18)14(13)15(11)19/h1-7,16-18H

>  <PUBCHEM_IUPAC_NAME>  (3) 
5,7-dihydroxy-3-(4-hydroxyphenyl)chromen-4-one

>  <PUBCHEM_COMPOUND_CID>  (3) 
5280961

>  <acvalue>  (3) 
9.12011

>  <Classification>  (3) 
1

>  <SMILES>  (3) 
O=c1c(-c2ccc(O)cc2)coc2cc(O)cc(O)c12

>  <InChIKey>  (3) 
TZBJGXHYKVUXJN-UHFFFAOYSA-N

$$$$
65999
     RDKit          2D

 39 44  0  0  0  0  0  0  0  0999 V2000
   13.8689   -0.7274    0.0000 O   0  0  0  0  0  0  0  0  0  0  0  0
   12.2225   -0.1893    0.0000 O   0  0  0  0  0  0  0  0  0  0  0  0
    8.6192   -0.0637    0.0000 N   0  0  0  0  0  0  0  0  0  0  0  0
    8.6192   -1.6732    0.0000 N   0  0  0  0  0  0  0  0  0  0  0  0
    4.1671   -0.2735    0.0000 N   0  0  0  0  0  0  0  0  0  0  0  0
    4.9718    1.1203    0.0000 N   0  0  0  0  0  0  0  0  0  0  0  0
    7.6730   -0.3684    0.0000 C   0  0  0  0  0  0  0  0  0  0  0  0
    9.2028   -0.8684    0.0000 C   0  0  0  0  0  0  0  0  0  0  0  0
    7.6730   -1.3684    0.0000 C   0  0  0  0  0  0  0  0  0  0  0  0
    8.9298    0.8868    0.0000 C   0  0  0  0  0  0  0  0  0  0  0  0
   10.2028   -0.8684    0.0000 C   0  0  0  0  0  0  0  0  0  0  0  0
    5.9409   -0.3684    0.0000 C   0  0  0  0  0  0  0  0  0  0  0  0
    6.8069    0.1316    0.0000 C   0  0  0  0  0  0  0  0  0  0  0  0
    6.8069   -1.8684    0.0000 C   0  0  0  0  0  0  0  0  0  0  0  0
    5.9409   -1.3684    0.0000 C   0  0  0  0  0  0  0  0  0  0  0  0
    5.0749    0.1316    0.0000 C   0  0  0  0  0  0  0  0  0  0  0  0
    9.9083    1.0930    0.0000 C   0  0  0  0  0  0  0  0  0  0  0  0
   10.7028   -1.7345    0.0000 C   0  0  0  0  0  0  0  0  0  0  0  0
    6.8069   -2.8684    0.0000 C   0  0  0  0  0  0  0  0  0  0  0  0
    3.5000    0.4635    0.0000 C   0  0  0  0  0  0  0  0  0  0  0  0
    4.0000    1.3295    0.0000 C   0  0  0  0  0  0  0  0  0  0  0  0
   10.5762    0.3487    0.0000 C   0  0  0  0  0  0  0  0  0  0  0  0
   10.2190    2.0436    0.0000 C   0  0  0  0  0  0  0  0  0  0  0  0
   11.7028   -1.7345    0.0000 C   0  0  0  0  0  0  0  0  0  0  0  0
    3.9609   -1.2521    0.0000 C   0  0  0  0  0  0  0  0  0  0  0  0
   11.8653    1.5055    0.0000 C   0  0  0  0  0  0  0  0  0  0  0  0
   11.5547    0.5550    0.0000 C   0  0  0  0  0  0  0  0  0  0  0  0
   11.1975    2.2498    0.0000 C   0  0  0  0  0  0  0  0  0  0  0  0
    2.5000    0.4635    0.0000 C   0  0  0  0  0  0  0  0  0  0  0  0
    3.5000    2.1955    0.0000 C   0  0  0  0  0  0  0  0  0  0  0  0
   12.8439    1.7117    0.0000 C   0  0  0  0  0  0  0  0  0  0  0  0
    2.0000    1.3295    0.0000 C   0  0  0  0  0  0  0  0  0  0  0  0
    2.5000    2.1955    0.0000 C   0  0  0  0  0  0  0  0  0  0  0  0
   13.5117    0.9674    0.0000 C   0  0  0  0  0  0  0  0  0  0  0  0
   13.1545    2.6622    0.0000 C   0  0  0  0  0  0  0  0  0  0  0  0
   14.4902    1.1736    0.0000 C   0  0  0  0  0  0  0  0  0  0  0  0
   14.1330    2.8684    0.0000 C   0  0  0  0  0  0  0  0  0  0  0  0
   14.8009    2.1241    0.0000 C   0  0  0  0  0  0  0  0  0  0  0  0
   13.2010    0.0169    0.0000 C   0  0  0  0  0  0  0  0  0  0  0  0
  1 39  1  0
  2 39  2  0
  3  7  1  0
  3  8  1  0
  3 10  1  0
  4  8  2  0
  4  9  1  0
  5 16  1  0
  5 20  1  0
  5 25  1  0
  6 16  2  0
  6 21  1  0
  7  9  2  0
  7 13  1  0
  8 11  1  0
  9 14  1  0
 10 17  1  0
 11 18  1  0
 12 13  2  0
 12 15  1  0
 12 16  1  0
 14 15  2  0
 14 19  1  0
 17 22  2  0
 17 23  1  0
 18 24  1  0
 20 21  2  0
 20 29  1  0
 21 30  1  0
 22 27  1  0
 23 28  2  0
 26 27  2  0
 26 28  1  0
 26 31  1  0
 29 32  2  0
 30 33  2  0
 31 34  2  0
 31 35  1  0
 32 33  1  0
 34 36  1  0
 34 39  1  0
 35 37  2  0
 36 38  2  0
 37 38  1  0
M  END
>  <Curated_InChIs>  (4) 
InChI=1S/C33H30N4O2/c1-4-9-30-35-31-21(2)18-24(32-34-27-12-7-8-13-28(27)36(32)3)19-29(31)37(30)20-22-14-16-23(17-15-22)25-10-5-6-11-26(25)33(38)39/h5-8,10-19H,4,9,20H2,1-3H3,(H,38,39)

>  <PUBCHEM_IUPAC_NAME>  (4) 
2-[4-[[4-methyl-6-(1-methylbenzimidazol-2-yl)-2-propylbenzimidazol-1-yl]methyl]phenyl]benzoic acid

>  <PUBCHEM_COMPOUND_CID>  (4) 
65999

>  <acvalue>  (4) 
1.86209

>  <Classification>  (4) 
1

>  <SMILES>  (4) 
CCCc1nc2c(C)cc(-c3nc4ccccc4n3C)cc2n1Cc1ccc(-c2ccccc2C(=O)O)cc1

>  <InChIKey>  (4) 
RMMXLENWKUUMAY-UHFFFAOYSA-N

$$$$
60822
     RDKit          2D

 83 88  0  0  1  0  0  0  0  0999 V2000
   13.9817   -1.1867    0.0000 Ca  0  0  0  0  0 15  0  0  0  0  0  0
   22.5185   -6.9059    0.0000 F   0  0  0  0  0  0  0  0  0  0  0  0
    3.8566   -2.9392    0.0000 F   0  0  0  0  0  0  0  0  0  0  0  0
   18.8564   -3.2452    0.0000 O   0  0  0  0  0  0  0  0  0  0  0  0
    8.6912   -1.0845    0.0000 O   0  0  0  0  0  0  0  0  0  0  0  0
   17.1622   -2.8850    0.0000 O   0  0  0  0  0  0  0  0  0  0  0  0
   10.3853   -1.4446    0.0000 O   0  0  0  0  0  0  0  0  0  0  0  0
   24.6008   -0.6626    0.0000 O   0  0  0  0  0  0  0  0  0  0  0  0
    4.4937    3.6113    0.0000 O   0  0  0  0  0  0  0  0  0  0  0  0
   14.9327   -0.8777    0.0000 O   0  0  0  0  0  0  0  0  0  0  0  0
   15.4680   -2.5249    0.0000 O   0  0  0  0  0  0  0  0  0  0  0  0
   13.2385   -0.5175    0.0000 O   0  0  0  0  0  0  0  0  0  0  0  0
   12.0796   -1.8047    0.0000 O   0  0  0  0  0  0  0  0  0  0  0  0
   21.7095   -2.3181    0.0000 N   0  0  0  0  0  0  0  0  0  0  0  0
    6.4617    0.9229    0.0000 N   0  0  0  0  0  0  0  0  0  0  0  0
   23.1996    0.3555    0.0000 N   0  0  0  0  0  0  0  0  0  0  0  0
    6.1879    3.9714    0.0000 N   0  0  0  0  0  0  0  0  0  0  0  0
   22.0185   -1.3671    0.0000 C   0  0  0  0  0  0  0  0  0  0  0  0
    6.5662    1.9174    0.0000 C   0  0  0  0  0  0  0  0  0  0  0  0
   20.7585   -2.6271    0.0000 C   0  0  0  0  0  0  0  0  0  0  0  0
    7.2049    0.2538    0.0000 C   0  0  0  0  0  0  0  0  0  0  0  0
   22.5185   -2.9059    0.0000 C   0  0  0  0  0  0  0  0  0  0  0  0
    5.4836    0.7150    0.0000 C   0  0  0  0  0  0  0  0  0  0  0  0
   21.4308   -0.5580    0.0000 C   0  0  0  0  0  0  0  0  0  0  0  0
    7.4323    2.4174    0.0000 C   0  0  0  0  0  0  0  0  0  0  0  0
   23.0185   -1.3671    0.0000 C   0  0  0  0  0  0  0  0  0  0  0  0
    5.6527    2.3242    0.0000 C   0  0  0  0  0  0  0  0  0  0  0  0
   20.0153   -1.9580    0.0000 C   0  0  0  0  0  0  0  0  0  0  0  0
    8.1559    0.5628    0.0000 C   0  0  0  0  0  0  0  0  0  0  0  0
   23.3276   -2.3181    0.0000 C   0  0  0  0  0  0  0  0  0  0  0  0
    4.9836    1.5810    0.0000 C   0  0  0  0  0  0  0  0  0  0  0  0
   19.0643   -2.2670    0.0000 C   0  0  0  0  0  0  0  0  0  0  0  0
    8.8991   -0.1063    0.0000 C   0  0  0  0  0  0  0  0  0  0  0  0
   18.3211   -1.5979    0.0000 C   0  0  0  0  0  0  0  0  0  0  0  0
    9.8501    0.2027    0.0000 C   0  0  0  0  0  0  0  0  0  0  0  0
   22.5185   -3.9059    0.0000 C   0  0  0  0  0  0  0  0  0  0  0  0
    5.0768   -0.1985    0.0000 C   0  0  0  0  0  0  0  0  0  0  0  0
   20.4362   -0.6626    0.0000 C   0  0  0  0  0  0  0  0  0  0  0  0
   21.8375    0.3555    0.0000 C   0  0  0  0  0  0  0  0  0  0  0  0
    7.4323    3.4174    0.0000 C   0  0  0  0  0  0  0  0  0  0  0  0
    8.2983    1.9174    0.0000 C   0  0  0  0  0  0  0  0  0  0  0  0
   24.2786   -2.6271    0.0000 C   0  0  0  0  0  0  0  0  0  0  0  0
    3.9890    1.6856    0.0000 C   0  0  0  0  0  0  0  0  0  0  0  0
   17.3701   -1.9069    0.0000 C   0  0  0  0  0  0  0  0  0  0  0  0
   10.5933   -0.4664    0.0000 C   0  0  0  0  0  0  0  0  0  0  0  0
   23.6063   -0.5580    0.0000 C   0  0  0  0  0  0  0  0  0  0  0  0
    5.4448    3.3023    0.0000 C   0  0  0  0  0  0  0  0  0  0  0  0
   21.6525   -4.4059    0.0000 C   0  0  0  0  0  0  0  0  0  0  0  0
   23.3846   -4.4059    0.0000 C   0  0  0  0  0  0  0  0  0  0  0  0
    5.6646   -1.0076    0.0000 C   0  0  0  0  0  0  0  0  0  0  0  0
    4.0823   -0.3031    0.0000 C   0  0  0  0  0  0  0  0  0  0  0  0
   16.6269   -1.2378    0.0000 C   0  0  0  0  0  0  0  0  0  0  0  0
   11.5443   -0.1574    0.0000 C   0  0  0  0  0  0  0  0  0  0  0  0
   25.0218   -1.9580    0.0000 C   0  0  0  0  0  0  0  0  0  0  0  0
   24.4865   -3.6053    0.0000 C   0  0  0  0  0  0  0  0  0  0  0  0
    3.5823    2.5991    0.0000 C   0  0  0  0  0  0  0  0  0  0  0  0
    3.4013    0.8765    0.0000 C   0  0  0  0  0  0  0  0  0  0  0  0
   21.6525   -5.4059    0.0000 C   0  0  0  0  0  0  0  0  0  0  0  0
   23.3846   -5.4059    0.0000 C   0  0  0  0  0  0  0  0  0  0  0  0
    5.2579   -1.9211    0.0000 C   0  0  0  0  0  0  0  0  0  0  0  0
    3.6756   -1.2166    0.0000 C   0  0  0  0  0  0  0  0  0  0  0  0
   25.9728   -2.2670    0.0000 C   0  0  0  0  0  0  0  0  0  0  0  0
   25.4376   -3.9143    0.0000 C   0  0  0  0  0  0  0  0  0  0  0  0
    2.5878    2.7036    0.0000 C   0  0  0  0  0  0  0  0  0  0  0  0
    2.4067    0.9811    0.0000 C   0  0  0  0  0  0  0  0  0  0  0  0
   22.5185   -5.9059    0.0000 C   0  0  0  0  0  0  0  0  0  0  0  0
    4.2634   -2.0256    0.0000 C   0  0  0  0  0  0  0  0  0  0  0  0
   23.7874    1.1645    0.0000 C   0  0  0  0  0  0  0  0  0  0  0  0
    5.9800    4.9496    0.0000 C   0  0  0  0  0  0  0  0  0  0  0  0
   26.1807   -3.2452    0.0000 C   0  0  0  0  0  0  0  0  0  0  0  0
    2.0000    1.8946    0.0000 C   0  0  0  0  0  0  0  0  0  0  0  0
   15.6759   -1.5468    0.0000 C   0  0  0  0  0  0  0  0  0  0  0  0
   12.2875   -0.8266    0.0000 C   0  0  0  0  0  0  0  0  0  0  0  0
   24.7819    1.0600    0.0000 C   0  0  0  0  0  0  0  0  0  0  0  0
   23.3806    2.0781    0.0000 C   0  0  0  0  0  0  0  0  0  0  0  0
    6.7232    5.6187    0.0000 C   0  0  0  0  0  0  0  0  0  0  0  0
    5.0290    5.2586    0.0000 C   0  0  0  0  0  0  0  0  0  0  0  0
   25.3697    1.8690    0.0000 C   0  0  0  0  0  0  0  0  0  0  0  0
   23.9684    2.8871    0.0000 C   0  0  0  0  0  0  0  0  0  0  0  0
    6.5152    6.5969    0.0000 C   0  0  0  0  0  0  0  0  0  0  0  0
    4.8210    6.2368    0.0000 C   0  0  0  0  0  0  0  0  0  0  0  0
   24.9629    2.7826    0.0000 C   0  0  0  0  0  0  0  0  0  0  0  0
    5.5642    6.9059    0.0000 C   0  0  0  0  0  0  0  0  0  0  0  0
  2 66  1  0
  3 67  1  0
 32  4  1  1
 33  5  1  6
 44  6  1  1
 45  7  1  6
  8 46  2  0
  9 47  2  0
 10 72  1  0
 11 72  2  0
 12 73  1  0
 13 73  2  0
 14 18  1  0
 14 20  1  0
 14 22  1  0
 15 19  1  0
 15 21  1  0
 15 23  1  0
 16 46  1  0
 16 68  1  0
 17 47  1  0
 17 69  1  0
 18 24  1  0
 18 26  2  0
 19 25  1  0
 19 27  2  0
 20 28  1  0
 21 29  1  0
 22 30  2  0
 22 36  1  0
 23 31  2  0
 23 37  1  0
 24 38  1  0
 24 39  1  0
 25 40  1  0
 25 41  1  0
 26 30  1  0
 26 46  1  0
 27 31  1  0
 27 47  1  0
 28 32  1  0
 29 33  1  0
 30 42  1  0
 31 43  1  0
 32 34  1  0
 33 35  1  0
 34 44  1  0
 35 45  1  0
 36 48  2  0
 36 49  1  0
 37 50  2  0
 37 51  1  0
 42 54  2  0
 42 55  1  0
 43 56  2  0
 43 57  1  0
 44 52  1  0
 45 53  1  0
 48 58  1  0
 49 59  2  0
 50 60  1  0
 51 61  2  0
 52 72  1  0
 53 73  1  0
 54 62  1  0
 55 63  2  0
 56 64  1  0
 57 65  2  0
 58 66  2  0
 59 66  1  0
 60 67  2  0
 61 67  1  0
 62 70  2  0
 63 70  1  0
 64 71  2  0
 65 71  1  0
 68 74  2  0
 68 75  1  0
 69 76  2  0
 69 77  1  0
 74 78  1  0
 75 79  2  0
 76 80  1  0
 77 81  2  0
 78 82  2  0
 79 82  1  0
 80 83  2  0
 81 83  1  0
M  CHG  3   1   2  10  -1  12  -1
M  END
>  <Curated_InChIs>  (5) 
InChI=1S/2C33H35FN2O5.Ca/c2*1-21(2)31-30(33(41)35-25-11-7-4-8-12-25)29(22-9-5-3-6-10-22)32(23-13-15-24(34)16-14-23)36(31)18-17-26(37)19-27(38)20-28(39)40;/h2*3-16,21,26-27,37-38H,17-20H2,1-2H3,(H,35,41)(H,39,40);

>  <PUBCHEM_IUPAC_NAME>  (5) 
calcium;(3R,5R)-7-[2-(4-fluorophenyl)-3-phenyl-4-(phenylcarbamoyl)-5-propan-2-ylpyrrol-1-yl]-3,5-dihydroxyheptanoate

>  <PUBCHEM_COMPOUND_CID>  (5) 
60822

>  <acvalue>  (5) 
0.81283

>  <Classification>  (5) 
1

>  <SMILES>  (5) 
CC(C)c1c(C(=O)Nc2ccccc2)c(-c2ccccc2)c(-c2ccc(F)cc2)n1CC[C@@H](O)C[C@@H](O)CC(=O)[O-].CC(C)c1c(C(=O)Nc2ccccc2)c(-c2ccccc2)c(-c2ccc(F)cc2)n1CC[C@@H](O)C[C@@H](O)CC(=O)[O-].[Ca+2]

>  <InChIKey>  (5) 
FQCKMBLVYCEXJB-MNSAWQCASA-L

$$$$
234102
     RDKit          2D

 37 41  0  0  1  0  0  0  0  0999 V2000
    3.7320   -2.6574    0.0000 O   0  0  0  0  0  0  0  0  0  0  0  0
    6.5270    0.8949    0.0000 O   0  0  0  0  0  0  0  0  0  0  0  0
   12.6571    0.4291    0.0000 O   0  0  0  0  0  0  0  0  0  0  0  0
   11.8027   -1.0775    0.0000 O   0  0  0  0  0  0  0  0  0  0  0  0
    2.8718   -1.1541    0.0000 O   0  0  0  0  0  0  0  0  0  0  0  0
    8.2591   -1.1050    0.0000 C   0  0  0  0  0  0  0  0  0  0  0  0
    6.4831   -1.1119    0.0000 C   0  0  0  0  0  0  0  0  0  0  0  0
    7.3931   -0.6051    0.0000 C   0  0  0  0  0  0  0  0  0  0  0  0
    9.1251   -0.6051    0.0000 C   0  0  0  0  0  0  0  0  0  0  0  0
    6.4750   -2.1535    0.0000 C   0  0  0  0  0  0  0  0  0  0  0  0
    8.2752   -2.1466    0.0000 C   0  0  0  0  0  0  0  0  0  0  0  0
    7.3771   -2.6743    0.0000 C   0  0  0  0  0  0  0  0  0  0  0  0
    5.5396   -2.7032    0.0000 C   0  0  0  0  0  0  0  0  0  0  0  0
    9.1251    0.3949    0.0000 C   0  0  0  0  0  0  0  0  0  0  0  0
   10.0191    0.9296    0.0000 C   0  0  0  0  0  0  0  0  0  0  0  0
   10.0191   -1.1397    0.0000 C   0  0  0  0  0  0  0  0  0  0  0  0
   10.9251    0.4158    0.0000 C   0  0  0  0  0  0  0  0  0  0  0  0
    5.5562   -0.5478    0.0000 C   0  0  0  0  0  0  0  0  0  0  0  0
   10.9251   -0.6259    0.0000 C   0  0  0  0  0  0  0  0  0  0  0  0
    7.3931    0.3949    0.0000 C   0  0  0  0  0  0  0  0  0  0  0  0
    8.9019   -1.8711    0.0000 C   0  0  0  0  0  0  0  0  0  0  0  0
    4.6000   -2.1607    0.0000 C   0  0  0  0  0  0  0  0  0  0  0  0
    6.4908   -0.1119    0.0000 C   0  0  0  0  0  0  0  0  0  0  0  0
    4.6084   -1.0758    0.0000 C   0  0  0  0  0  0  0  0  0  0  0  0
    9.9940    2.0143    0.0000 C   0  0  0  0  0  0  0  0  0  0  0  0
    9.4672   -1.5447    0.0000 C   0  0  0  0  0  0  0  0  0  0  0  0
    8.2591    0.8949    0.0000 C   0  0  0  0  0  0  0  0  0  0  0  0
   11.8689    0.9510    0.0000 C   0  0  0  0  0  0  0  0  0  0  0  0
   10.9251    2.5712    0.0000 C   0  0  0  0  0  0  0  0  0  0  0  0
    5.0430   -3.5712    0.0000 C   0  0  0  0  0  0  0  0  0  0  0  0
    6.0430   -3.5673    0.0000 C   0  0  0  0  0  0  0  0  0  0  0  0
   11.8689    2.0360    0.0000 C   0  0  0  0  0  0  0  0  0  0  0  0
   11.7950   -0.0775    0.0000 C   0  0  0  0  0  0  0  0  0  0  0  0
    9.1185    2.4975    0.0000 C   0  0  0  0  0  0  0  0  0  0  0  0
   10.9136    3.5712    0.0000 C   0  0  0  0  0  0  0  0  0  0  0  0
    2.8680   -2.1540    0.0000 C   0  0  0  0  0  0  0  0  0  0  0  0
    2.0000   -2.6507    0.0000 C   0  0  0  0  0  0  0  0  0  0  0  0
 22  1  1  1
  1 36  1  0
  2 20  2  0
  3 33  1  0
  4 33  2  0
  5 36  2  0
  6  8  1  0
  6  9  1  0
  6 11  1  0
  6 21  1  1
  7  8  1  0
  7 10  1  0
  7 18  1  0
  7 23  1  1
  8 20  1  1
  9 14  1  0
  9 16  1  0
  9 26  1  6
 10 12  1  1
 10 13  1  0
 11 12  1  0
 13 22  1  0
 13 30  1  0
 13 31  1  0
 15 14  1  6
 14 27  2  0
 15 17  1  0
 15 25  1  0
 16 19  1  0
 17 19  1  0
 17 28  1  0
 17 33  1  1
 18 24  1  0
 20 27  1  0
 22 24  1  0
 25 29  1  0
 25 34  1  1
 28 32  1  0
 29 32  1  0
 29 35  1  6
 36 37  1  0
M  END
>  <Curated_InChIs>  (6) 
InChI=1S/C32H48O5/c1-18-9-14-32(27(35)36)16-15-30(7)21(25(32)19(18)2)17-22(34)26-29(6)12-11-24(37-20(3)33)28(4,5)23(29)10-13-31(26,30)8/h17-19,23-26H,9-16H2,1-8H3,(H,35,36)

>  <PUBCHEM_IUPAC_NAME>  (6) 
(1S,2R,4aS,6aR,6aS,6bR,8aR,10S,12aS,14bS)-10-acetyloxy-1,2,6a,6b,9,9,12a-heptamethyl-13-oxo-1,2,3,4,5,6,6a,7,8,8a,10,11,12,14b-tetradecahydropicene-4a-carboxylic acid

>  <PUBCHEM_COMPOUND_CID>  (6) 
234102

>  <acvalue>  (6) 
11.2202

>  <Classification>  (6) 
0

>  <SMILES>  (6) 
CC(=O)O[C@H]1CC[C@@]2(C)[C@@H](CC[C@]3(C)[C@@H]2C(=O)C=C2[C@@H]4[C@@H](C)[C@H](C)CC[C@]4(C(=O)O)CC[C@]23C)C1(C)C

>  <InChIKey>  (6) 
XDHCWTUZCOFKRH-CIKBGXLUSA-N

$$$$
92095
     RDKit          2D

 30 35  0  0  1  0  0  0  0  0999 V2000
    5.5954   -2.5456    0.0000 O   0  0  0  0  0  0  0  0  0  0  0  0
    3.9300   -1.4644    0.0000 O   0  0  0  0  0  0  0  0  0  0  0  0
   12.0027    2.8336    0.0000 O   0  0  0  0  0  0  0  0  0  0  0  0
    6.6628   -0.3108    0.0000 C   0  0  0  0  0  0  0  0  0  0  0  0
    7.5288   -0.8108    0.0000 C   0  0  0  0  0  0  0  0  0  0  0  0
    5.9258   -0.9778    0.0000 C   0  0  0  0  0  0  0  0  0  0  0  0
    8.3948   -0.3108    0.0000 C   0  0  0  0  0  0  0  0  0  0  0  0
    8.3948    0.6892    0.0000 C   0  0  0  0  0  0  0  0  0  0  0  0
    6.3309   -1.8856    0.0000 C   0  0  0  0  0  0  0  0  0  0  0  0
    9.2888    1.2239    0.0000 C   0  0  0  0  0  0  0  0  0  0  0  0
    7.3196   -1.7826    0.0000 C   0  0  0  0  0  0  0  0  0  0  0  0
    6.6628    0.6892    0.0000 C   0  0  0  0  0  0  0  0  0  0  0  0
    7.5288    1.1892    0.0000 C   0  0  0  0  0  0  0  0  0  0  0  0
    4.9434   -1.0845    0.0000 C   0  0  0  0  0  0  0  0  0  0  0  0
   10.1949    0.7101    0.0000 C   0  0  0  0  0  0  0  0  0  0  0  0
    9.2888   -0.8454    0.0000 C   0  0  0  0  0  0  0  0  0  0  0  0
    4.7396   -2.0515    0.0000 C   0  0  0  0  0  0  0  0  0  0  0  0
   10.1949   -0.3316    0.0000 C   0  0  0  0  0  0  0  0  0  0  0  0
    5.7968    0.1892    0.0000 C   0  0  0  0  0  0  0  0  0  0  0  0
    9.2637    2.3086    0.0000 C   0  0  0  0  0  0  0  0  0  0  0  0
   11.1386    1.2453    0.0000 C   0  0  0  0  0  0  0  0  0  0  0  0
    8.4189    1.7172    0.0000 C   0  0  0  0  0  0  0  0  0  0  0  0
    4.2723   -0.3431    0.0000 C   0  0  0  0  0  0  0  0  0  0  0  0
   10.1949    2.8655    0.0000 C   0  0  0  0  0  0  0  0  0  0  0  0
    4.6359   -3.0461    0.0000 C   0  0  0  0  0  0  0  0  0  0  0  0
   11.1386    2.3303    0.0000 C   0  0  0  0  0  0  0  0  0  0  0  0
    3.7227   -3.4536    0.0000 C   0  0  0  0  0  0  0  0  0  0  0  0
    3.0169   -1.8719    0.0000 C   0  0  0  0  0  0  0  0  0  0  0  0
    2.9132   -2.8665    0.0000 C   0  0  0  0  0  0  0  0  0  0  0  0
    2.0000   -3.2741    0.0000 C   0  0  0  0  0  0  0  0  0  0  0  0
  1  9  1  0
 17  1  1  0
  2 17  1  0
  2 28  1  0
 26  3  1  6
  4  5  1  0
  4  6  1  0
  4 12  1  0
  4 19  1  6
  5  7  1  0
  5 11  1  6
  6  9  1  6
  6 14  1  0
  7  8  1  0
  7 16  1  1
  8 10  1  0
  8 13  1  6
  9 11  1  6
 10 15  1  0
 10 20  1  0
 10 22  1  6
 12 13  1  0
 14 17  1  0
 14 23  1  1
 15 18  1  1
 15 21  1  0
 16 18  1  0
 17 25  1  6
 20 24  1  0
 21 26  1  0
 24 26  1  0
 25 27  1  0
 27 29  1  0
 28 29  1  0
 29 30  1  6
M  END
>  <Curated_InChIs>  (7) 
InChI=1S/C27H44O3/c1-16-7-12-27(29-15-16)17(2)24-23(30-27)14-22-20-6-5-18-13-19(28)8-10-25(18,3)21(20)9-11-26(22,24)4/h16-24,28H,5-15H2,1-4H3

>  <PUBCHEM_IUPAC_NAME>  (7) 
(1R,2S,4S,5'S,6R,7S,8R,9S,12S,13S,16S,18R)-5',7,9,13-tetramethylspiro[5-oxapentacyclo[10.8.0.02,9.04,8.013,18]icosane-6,2'-oxane]-16-ol

>  <PUBCHEM_COMPOUND_CID>  (7) 
92095

>  <acvalue>  (7) 
0.24547

>  <Classification>  (7) 
1

>  <SMILES>  (7) 
C[C@H]1CC[C@@]2(OC1)O[C@H]1C[C@H]3[C@@H]4CC[C@@H]5C[C@@H](O)CC[C@]5(C)[C@H]4CC[C@]3(C)[C@H]1[C@@H]2C

>  <InChIKey>  (7) 
GMBQZIIUCVWOCD-WWASVFFGSA-N

$$$$
25096
     RDKit          2D

 55 60  0  0  1  0  0  0  0  0999 V2000
    8.5895    0.6200    0.0000 Cl  0  0  0  0  0  0  0  0  0  0  0  0
   12.9197    8.1200    0.0000 O   0  0  0  0  0  0  0  0  0  0  0  0
   14.6517   10.1200    0.0000 O   0  0  0  0  0  0  0  0  0  0  0  0
    0.8660    6.6281    0.0000 O   0  0  0  0  0  0  0  0  0  0  0  0
    1.3126    4.0959    0.0000 O   0  0  0  0  0  0  0  0  0  0  0  0
    0.8660    9.6281    0.0000 O   0  0  0  0  0  0  0  0  0  0  0  0
    2.3386    1.2769    0.0000 O   0  0  0  0  0  0  0  0  0  0  0  0
    0.0000    8.1281    0.0000 O   0  0  0  0  0  0  0  0  0  0  0  0
    1.0117    2.3902    0.0000 O   0  0  0  0  0  0  0  0  0  0  0  0
   12.0536    3.6200    0.0000 N   0  0  0  0  0  0  0  0  0  0  0  0
   12.0536    5.6200    0.0000 N   0  0  0  0  0  0  0  0  0  0  0  0
   11.1876    4.1200    0.0000 C   0  0  0  0  0  0  0  0  0  0  0  0
   12.9197    4.1200    0.0000 C   0  0  0  0  0  0  0  0  0  0  0  0
   11.1876    5.1200    0.0000 C   0  0  0  0  0  0  0  0  0  0  0  0
   12.9197    5.1200    0.0000 C   0  0  0  0  0  0  0  0  0  0  0  0
   12.0536    2.6200    0.0000 C   0  0  0  0  0  0  0  0  0  0  0  0
   12.0536    6.6200    0.0000 C   0  0  0  0  0  0  0  0  0  0  0  0
   11.1876    2.1200    0.0000 C   0  0  0  0  0  0  0  0  0  0  0  0
   12.9197    2.1200    0.0000 C   0  0  0  0  0  0  0  0  0  0  0  0
   12.9197    7.1200    0.0000 C   0  0  0  0  0  0  0  0  0  0  0  0
   10.3216    2.6200    0.0000 C   0  0  0  0  0  0  0  0  0  0  0  0
   11.1876    1.1200    0.0000 C   0  0  0  0  0  0  0  0  0  0  0  0
   13.7857    2.6200    0.0000 C   0  0  0  0  0  0  0  0  0  0  0  0
   12.9197    1.1200    0.0000 C   0  0  0  0  0  0  0  0  0  0  0  0
    9.4556    2.1200    0.0000 C   0  0  0  0  0  0  0  0  0  0  0  0
   10.3216    0.6200    0.0000 C   0  0  0  0  0  0  0  0  0  0  0  0
   14.6517    2.1200    0.0000 C   0  0  0  0  0  0  0  0  0  0  0  0
   13.7857    0.6200    0.0000 C   0  0  0  0  0  0  0  0  0  0  0  0
    9.4556    1.1200    0.0000 C   0  0  0  0  0  0  0  0  0  0  0  0
   14.6517    1.1200    0.0000 C   0  0  0  0  0  0  0  0  0  0  0  0
   13.7857    8.6200    0.0000 C   0  0  0  0  0  0  0  0  0  0  0  0
   13.7857    9.6200    0.0000 C   0  0  0  0  0  0  0  0  0  0  0  0
    2.5981    5.6281    0.0000 C   0  0  0  0  0  0  0  0  0  0  0  0
    2.5981    6.6281    0.0000 C   0  0  0  0  0  0  0  0  0  0  0  0
    2.9401    4.6884    0.0000 C   0  0  0  0  0  0  0  0  0  0  0  0
    3.4641    7.1281    0.0000 C   0  0  0  0  0  0  0  0  0  0  0  0
    3.9249    4.5147    0.0000 C   0  0  0  0  0  0  0  0  0  0  0  0
    3.4641    8.1281    0.0000 C   0  0  0  0  0  0  0  0  0  0  0  0
    4.2669    3.5750    0.0000 C   0  0  0  0  0  0  0  0  0  0  0  0
    1.7320    7.1281    0.0000 C   0  0  0  0  0  0  0  0  0  0  0  0
    2.2973    3.9223    0.0000 C   0  0  0  0  0  0  0  0  0  0  0  0
    1.7320    8.1281    0.0000 C   0  0  0  0  0  0  0  0  0  0  0  0
    2.6393    2.9826    0.0000 C   0  0  0  0  0  0  0  0  0  0  0  0
    2.5981    8.6281    0.0000 C   0  0  0  0  0  0  0  0  0  0  0  0
    3.6241    2.8090    0.0000 C   0  0  0  0  0  0  0  0  0  0  0  0
    4.3580    6.5934    0.0000 C   0  0  0  0  0  0  0  0  0  0  0  0
    4.5821    5.3229    0.0000 C   0  0  0  0  0  0  0  0  0  0  0  0
    4.3580    8.6627    0.0000 C   0  0  0  0  0  0  0  0  0  0  0  0
    5.2898    3.3784    0.0000 C   0  0  0  0  0  0  0  0  0  0  0  0
    5.2641    7.1072    0.0000 C   0  0  0  0  0  0  0  0  0  0  0  0
    5.6092    5.1499    0.0000 C   0  0  0  0  0  0  0  0  0  0  0  0
    5.2641    8.1489    0.0000 C   0  0  0  0  0  0  0  0  0  0  0  0
    5.9655    4.1711    0.0000 C   0  0  0  0  0  0  0  0  0  0  0  0
    0.8660    8.6281    0.0000 C   0  0  0  0  0  0  0  0  0  0  0  0
    1.9965    2.2166    0.0000 C   0  0  0  0  0  0  0  0  0  0  0  0
  1 29  1  0
  2 20  1  0
  2 31  1  0
  3 32  1  0
  4 40  1  0
  5 41  1  0
  6 54  1  0
  7 55  1  0
  8 54  2  0
  9 55  2  0
 10 12  1  0
 10 13  1  0
 10 16  1  0
 11 14  1  0
 11 15  1  0
 11 17  1  0
 12 14  1  0
 13 15  1  0
 16 18  1  0
 16 19  1  0
 17 20  1  0
 18 21  2  0
 18 22  1  0
 19 23  2  0
 19 24  1  0
 21 25  1  0
 22 26  2  0
 23 27  1  0
 24 28  2  0
 25 29  2  0
 26 29  1  0
 27 30  2  0
 28 30  1  0
 31 32  1  0
 33 34  1  0
 33 35  1  0
 34 36  1  0
 34 40  2  0
 35 37  1  0
 35 41  2  0
 36 38  2  0
 36 46  1  0
 37 39  2  0
 37 47  1  0
 38 44  1  0
 38 48  1  0
 39 45  1  0
 39 49  1  0
 40 42  1  0
 41 43  1  0
 42 44  2  0
 42 54  1  0
 43 45  2  0
 43 55  1  0
 46 50  2  0
 47 51  2  0
 48 52  2  0
 49 53  2  0
 50 52  1  0
 51 53  1  0
M  END
>  <Curated_InChIs>  (8) 
InChI=1S/C23H16O6.C21H27ClN2O2/c24-20-16(14-7-3-1-5-12(14)9-18(20)22(26)27)11-17-15-8-4-2-6-13(15)10-19(21(17)25)23(28)29;22-20-8-6-19(7-9-20)21(18-4-2-1-3-5-18)24-12-10-23(11-13-24)14-16-26-17-15-25/h1-10,24-25H,11H2,(H,26,27)(H,28,29);1-9,21,25H,10-17H2

>  <PUBCHEM_IUPAC_NAME>  (8) 
4-[(3-carboxy-2-hydroxynaphthalen-1-yl)methyl]-3-hydroxynaphthalene-2-carboxylic acid;2-[2-[4-[(4-chlorophenyl)-phenylmethyl]piperazin-1-yl]ethoxy]ethanol

>  <PUBCHEM_COMPOUND_CID>  (8) 
25096

>  <acvalue>  (8) 
0.81283

>  <Classification>  (8) 
1

>  <SMILES>  (8) 
O=C(O)c1cc2ccccc2c(Cc2c(O)c(C(=O)O)cc3ccccc23)c1O.OCCOCCN1CCN(C(c2ccccc2)c2ccc(Cl)cc2)CC1

>  <InChIKey>  (8) 
ASDOKGIIKXGMNB-UHFFFAOYSA-N

$$$$
23675786
     RDKit          2D

 32 33  0  0  1  0  0  0  0  0999 V2000
    3.2221    2.9668    0.0000 Cl  0  0  0  0  0  0  0  0  0  0  0  0
    1.3414    5.8760    0.0000 Cl  0  0  0  0  0  0  0  0  0  0  0  0
    8.4466    4.2633    0.0000 S   0  0  0  0  0  0  0  0  0  0  0  0
    8.3955    0.0000    0.0000 Na  0  0  0  0  0 15  0  0  0  0  0  0
    5.7816    2.2416    0.0000 O   0  0  0  0  0  0  0  0  0  0  0  0
    8.0865    0.9511    0.0000 O   0  0  0  0  0  0  0  0  0  0  0  0
    9.7338    1.4863    0.0000 O   0  0  0  0  0  0  0  0  0  0  0  0
    4.5544    3.4448    0.0000 O   0  0  0  0  0  0  0  0  0  0  0  0
    3.3779    6.5619    0.0000 O   0  0  0  0  0  0  0  0  0  0  0  0
    5.1725    9.1127    0.0000 O   0  0  0  0  0  0  0  0  0  0  0  0
    7.4956    2.9543    0.0000 N   0  0  0  0  0  0  0  0  0  0  0  0
    5.7816    4.6670    0.0000 N   0  0  0  0  0  0  0  0  0  0  0  0
    2.6693    5.8562    0.0000 N   0  0  0  0  0  0  0  0  0  0  0  0
    7.4956    3.9543    0.0000 C   0  0  0  0  0  0  0  0  0  0  0  0
    9.0344    3.4543    0.0000 C   0  0  0  0  0  0  0  0  0  0  0  0
    8.4466    2.6453    0.0000 C   0  0  0  0  0  0  0  0  0  0  0  0
    6.4873    3.9584    0.0000 C   0  0  0  0  0  0  0  0  0  0  0  0
    6.4873    2.9501    0.0000 C   0  0  0  0  0  0  0  0  0  0  0  0
    9.8434    4.0421    0.0000 C   0  0  0  0  0  0  0  0  0  0  0  0
    9.8434    2.8665    0.0000 C   0  0  0  0  0  0  0  0  0  0  0  0
    8.7556    1.6942    0.0000 C   0  0  0  0  0  0  0  0  0  0  0  0
    4.8152    4.4101    0.0000 C   0  0  0  0  0  0  0  0  0  0  0  0
    4.1095    5.1187    0.0000 C   0  0  0  0  0  0  0  0  0  0  0  0
    3.1215    4.9643    0.0000 C   0  0  0  0  0  0  0  0  0  0  0  0
    4.2680    6.1061    0.0000 C   0  0  0  0  0  0  0  0  0  0  0  0
    2.2817    4.4214    0.0000 C   0  0  0  0  0  0  0  0  0  0  0  0
    5.1599    6.5582    0.0000 C   0  0  0  0  0  0  0  0  0  0  0  0
    2.3320    3.4226    0.0000 C   0  0  0  0  0  0  0  0  0  0  0  0
    1.3916    4.8772    0.0000 C   0  0  0  0  0  0  0  0  0  0  0  0
    1.4923    2.8797    0.0000 C   0  0  0  0  0  0  0  0  0  0  0  0
    0.5519    4.3343    0.0000 C   0  0  0  0  0  0  0  0  0  0  0  0
    0.6022    3.3355    0.0000 C   0  0  0  0  0  0  0  0  0  0  0  0
  1 28  1  0
  2 29  1  0
 14  3  1  1
  3 15  1  0
  5 18  2  0
  6 21  1  0
  7 21  2  0
  8 22  2  0
  9 13  1  0
  9 25  1  0
 11 14  1  0
 11 16  1  0
 11 18  1  0
 17 12  1  1
 12 22  1  0
 13 24  2  0
 14 17  1  0
 15 16  1  0
 15 19  1  0
 15 20  1  0
 16 21  1  6
 17 18  1  0
 22 23  1  0
 23 24  1  0
 23 25  2  0
 24 26  1  0
 25 27  1  0
 26 28  2  0
 26 29  1  0
 28 30  1  0
 29 31  2  0
 30 32  2  0
 31 32  1  0
M  CHG  2   4   1   6  -1
M  END
>  <Curated_InChIs>  (9) 
InChI=1S/C19H17Cl2N3O5S.Na.H2O/c1-7-10(12(23-29-7)11-8(20)5-4-6-9(11)21)15(25)22-13-16(26)24-14(18(27)28)19(2,3)30-17(13)24;;/h4-6,13-14,17H,1-3H3,(H,22,25)(H,27,28);;1H2

>  <PUBCHEM_IUPAC_NAME>  (9) 
sodium;(2S,5R,6R)-6-[[3-(2,6-dichlorophenyl)-5-methyl-1,2-oxazole-4-carbonyl]amino]-3,3-dimethyl-7-oxo-4-thia-1-azabicyclo[3.2.0]heptane-2-carboxylate;hydrate

>  <PUBCHEM_COMPOUND_CID>  (9) 
23675786

>  <acvalue>  (9) 
0.67608

>  <Classification>  (9) 
1

>  <SMILES>  (9) 
Cc1onc(-c2c(Cl)cccc2Cl)c1C(=O)N[C@@H]1C(=O)N2[C@@H](C(=O)[O-])C(C)(C)S[C@H]12.O.[Na+]

>  <InChIKey>  (9) 
SIGZQNJITOWQEF-VICXVTCVSA-M

$$$$
636402
     RDKit          2D

 43 45  0  0  1  0  0  0  0  0999 V2000
    2.0000   -2.9785    0.0000 Na  0  0  0  0  0 15  0  0  0  0  0  0
   16.3690    3.9852    0.0000 Na  0  0  0  0  0 15  0  0  0  0  0  0
    7.1961   -2.9985    0.0000 O   0  0  0  0  0  0  0  0  0  0  0  0
    9.9911    0.5538    0.0000 O   0  0  0  0  0  0  0  0  0  0  0  0
   15.8791    3.1134    0.0000 O   0  0  0  0  0  0  0  0  0  0  0  0
   14.3692    3.9620    0.0000 O   0  0  0  0  0  0  0  0  0  0  0  0
    6.3359   -1.4952    0.0000 O   0  0  0  0  0  0  0  0  0  0  0  0
    2.8680   -2.4818    0.0000 O   0  0  0  0  0  0  0  0  0  0  0  0
    3.7282   -3.9852    0.0000 O   0  0  0  0  0  0  0  0  0  0  0  0
   11.7232   -1.4462    0.0000 C   0  0  0  0  0  0  0  0  0  0  0  0
    9.9472   -1.4530    0.0000 C   0  0  0  0  0  0  0  0  0  0  0  0
   10.8571   -0.9462    0.0000 C   0  0  0  0  0  0  0  0  0  0  0  0
   12.5892   -0.9462    0.0000 C   0  0  0  0  0  0  0  0  0  0  0  0
    9.9391   -2.4946    0.0000 C   0  0  0  0  0  0  0  0  0  0  0  0
   11.7392   -2.4877    0.0000 C   0  0  0  0  0  0  0  0  0  0  0  0
   10.8412   -3.0154    0.0000 C   0  0  0  0  0  0  0  0  0  0  0  0
    9.0037   -3.0444    0.0000 C   0  0  0  0  0  0  0  0  0  0  0  0
   12.5892    0.0538    0.0000 C   0  0  0  0  0  0  0  0  0  0  0  0
   13.4831    0.5885    0.0000 C   0  0  0  0  0  0  0  0  0  0  0  0
   14.3892    0.0746    0.0000 C   0  0  0  0  0  0  0  0  0  0  0  0
   13.4831   -1.4808    0.0000 C   0  0  0  0  0  0  0  0  0  0  0  0
    9.0203   -0.8890    0.0000 C   0  0  0  0  0  0  0  0  0  0  0  0
   14.3892   -0.9670    0.0000 C   0  0  0  0  0  0  0  0  0  0  0  0
   10.8571    0.0538    0.0000 C   0  0  0  0  0  0  0  0  0  0  0  0
   12.3660   -2.2122    0.0000 C   0  0  0  0  0  0  0  0  0  0  0  0
    8.0641   -2.5019    0.0000 C   0  0  0  0  0  0  0  0  0  0  0  0
    9.9548   -0.4531    0.0000 C   0  0  0  0  0  0  0  0  0  0  0  0
    8.0724   -1.4169    0.0000 C   0  0  0  0  0  0  0  0  0  0  0  0
   12.9313   -1.8858    0.0000 C   0  0  0  0  0  0  0  0  0  0  0  0
   11.7232    0.5538    0.0000 C   0  0  0  0  0  0  0  0  0  0  0  0
   13.4580    1.6732    0.0000 C   0  0  0  0  0  0  0  0  0  0  0  0
   15.3330    0.6099    0.0000 C   0  0  0  0  0  0  0  0  0  0  0  0
   14.3892    2.2301    0.0000 C   0  0  0  0  0  0  0  0  0  0  0  0
   15.3330    1.6949    0.0000 C   0  0  0  0  0  0  0  0  0  0  0  0
    8.5070   -3.9123    0.0000 C   0  0  0  0  0  0  0  0  0  0  0  0
    9.5070   -3.9084    0.0000 C   0  0  0  0  0  0  0  0  0  0  0  0
   15.2591   -0.4187    0.0000 C   0  0  0  0  0  0  0  0  0  0  0  0
   13.8792    3.0903    0.0000 C   0  0  0  0  0  0  0  0  0  0  0  0
   14.8792    3.1019    0.0000 C   0  0  0  0  0  0  0  0  0  0  0  0
    6.3320   -2.4952    0.0000 C   0  0  0  0  0  0  0  0  0  0  0  0
    5.4641   -2.9918    0.0000 C   0  0  0  0  0  0  0  0  0  0  0  0
    4.6000   -2.4885    0.0000 C   0  0  0  0  0  0  0  0  0  0  0  0
    3.7320   -2.9852    0.0000 C   0  0  0  0  0  0  0  0  0  0  0  0
 26  3  1  1
  3 40  1  0
  4 24  2  0
  5 39  1  0
  6 39  2  0
  7 40  2  0
  8 43  1  0
  9 43  2  0
 10 12  1  0
 10 13  1  0
 10 15  1  0
 10 25  1  1
 11 12  1  0
 11 14  1  0
 11 22  1  0
 11 27  1  1
 12 24  1  1
 13 18  1  0
 13 21  1  0
 13 29  1  6
 14 16  1  1
 14 17  1  0
 15 16  1  0
 17 26  1  0
 17 35  1  0
 17 36  1  0
 18 19  1  0
 18 30  2  0
 19 20  1  0
 19 31  1  6
 20 23  1  0
 20 32  1  0
 20 37  1  1
 21 23  1  0
 22 28  1  0
 24 30  1  0
 26 28  1  0
 31 33  1  0
 32 34  1  0
 33 34  1  0
 33 38  1  6
 33 39  1  0
 40 41  1  0
 41 42  1  0
 42 43  1  0
M  CHG  4   1   1   2   1   5  -1   8  -1
M  END
>  <Curated_InChIs>  (10) 
InChI=1S/C34H50O7.2Na/c1-29(2)23-10-13-34(7)27(32(23,5)12-11-24(29)41-26(38)9-8-25(36)37)22(35)18-20-21-19-31(4,28(39)40)15-14-30(21,3)16-17-33(20,34)6;;/h18,21,23-24,27H,8-17,19H2,1-7H3,(H,36,37)(H,39,40);;

>  <PUBCHEM_IUPAC_NAME>  (10) 
disodium;(2S,4aS,6aR,6aS,6bR,8aR,10S,12aS,14bR)-10-(3-carboxylatopropanoyloxy)-2,4a,6a,6b,9,9,12a-heptamethyl-13-oxo-3,4,5,6,6a,7,8,8a,10,11,12,14b-dodecahydro-1H-picene-2-carboxylate

>  <PUBCHEM_COMPOUND_CID>  (10) 
636402

>  <acvalue>  (10) 
1.94984

>  <Classification>  (10) 
1

>  <SMILES>  (10) 
CC1(C)[C@@H](OC(=O)CCC(=O)[O-])CC[C@@]2(C)[C@H]1CC[C@]1(C)[C@@H]2C(=O)C=C2[C@@H]3C[C@@](C)(C(=O)[O-])CC[C@]3(C)CC[C@]21C.[Na+].[Na+]

>  <InChIKey>  (10) 
BQENDLAVTKRQMS-SBBGFIFASA-L

$$$$
6426773
     RDKit          2D

 43 44  0  0  1  0  0  0  0  0999 V2000
    3.4030   -2.3854    0.0000 Na  0  0  0  0  0 15  0  0  0  0  0  0
    7.7901    1.2023    0.0000 O   0  0  0  0  0  0  0  0  0  0  0  0
    8.9651    3.6534    0.0000 O   0  0  0  0  0  0  0  0  0  0  0  0
    7.5991    6.0194    0.0000 O   0  0  0  0  0  0  0  0  0  0  0  0
    6.8671   -0.3854    0.0000 O   0  0  0  0  0  0  0  0  0  0  0  0
    6.0010   -1.8854    0.0000 O   0  0  0  0  0  0  0  0  0  0  0  0
    2.5369   -4.8854    0.0000 O   0  0  0  0  0  0  0  0  0  0  0  0
    3.4030   -3.3854    0.0000 O   0  0  0  0  0  0  0  0  0  0  0  0
    5.1350   -3.3854    0.0000 O   0  0  0  0  0  0  0  0  0  0  0  0
    8.0991    2.1534    0.0000 C   0  0  0  0  0  0  0  0  0  0  0  0
    9.0991    2.1534    0.0000 C   0  0  0  0  0  0  0  0  0  0  0  0
    9.4081    1.2023    0.0000 C   0  0  0  0  0  0  0  0  0  0  0  0
    8.0991    3.1534    0.0000 C   0  0  0  0  0  0  0  0  0  0  0  0
    8.5991    0.6146    0.0000 C   0  0  0  0  0  0  0  0  0  0  0  0
    7.2331    3.6534    0.0000 C   0  0  0  0  0  0  0  0  0  0  0  0
    7.1481    2.4624    0.0000 C   0  0  0  0  0  0  0  0  0  0  0  0
    8.5991   -0.3854    0.0000 C   0  0  0  0  0  0  0  0  0  0  0  0
    8.0991    5.1534    0.0000 C   0  0  0  0  0  0  0  0  0  0  0  0
    7.2331    4.6534    0.0000 C   0  0  0  0  0  0  0  0  0  0  0  0
    8.9651    4.6534    0.0000 C   0  0  0  0  0  0  0  0  0  0  0  0
   10.3592    0.8933    0.0000 C   0  0  0  0  0  0  0  0  0  0  0  0
    9.4651   -0.8854    0.0000 C   0  0  0  0  0  0  0  0  0  0  0  0
    7.7331   -0.8854    0.0000 C   0  0  0  0  0  0  0  0  0  0  0  0
    8.5991    6.0194    0.0000 C   0  0  0  0  0  0  0  0  0  0  0  0
    6.4049    1.7933    0.0000 C   0  0  0  0  0  0  0  0  0  0  0  0
    9.8312    5.1534    0.0000 C   0  0  0  0  0  0  0  0  0  0  0  0
    7.7331   -1.8854    0.0000 C   0  0  0  0  0  0  0  0  0  0  0  0
    6.8671   -2.3854    0.0000 C   0  0  0  0  0  0  0  0  0  0  0  0
    9.4651   -1.8854    0.0000 C   0  0  0  0  0  0  0  0  0  0  0  0
    8.0991    6.8854    0.0000 C   0  0  0  0  0  0  0  0  0  0  0  0
    6.8671   -3.3854    0.0000 C   0  0  0  0  0  0  0  0  0  0  0  0
    8.5991   -2.3854    0.0000 C   0  0  0  0  0  0  0  0  0  0  0  0
    6.0010   -3.8854    0.0000 C   0  0  0  0  0  0  0  0  0  0  0  0
    7.7331   -3.8854    0.0000 C   0  0  0  0  0  0  0  0  0  0  0  0
    6.0010   -4.8854    0.0000 C   0  0  0  0  0  0  0  0  0  0  0  0
    5.1350   -5.3854    0.0000 C   0  0  0  0  0  0  0  0  0  0  0  0
    4.2690   -4.8854    0.0000 C   0  0  0  0  0  0  0  0  0  0  0  0
    5.1350   -6.3854    0.0000 C   0  0  0  0  0  0  0  0  0  0  0  0
    3.4030   -5.3854    0.0000 C   0  0  0  0  0  0  0  0  0  0  0  0
    4.2690   -6.8854    0.0000 C   0  0  0  0  0  0  0  0  0  0  0  0
    3.4030   -6.3854    0.0000 C   0  0  0  0  0  0  0  0  0  0  0  0
    4.2690   -3.8854    0.0000 C   0  0  0  0  0  0  0  0  0  0  0  0
    2.5369   -6.8854    0.0000 C   0  0  0  0  0  0  0  0  0  0  0  0
  2 10  1  0
 14  2  1  1
  3 13  1  0
  3 20  1  0
 18  4  1  1
  5 23  2  0
 28  6  1  6
  7 39  1  0
  8 42  1  0
  9 42  2  0
 10 11  1  0
 10 13  1  0
 10 16  1  1
 11 12  1  0
 12 14  1  0
 12 21  1  6
 13 15  1  1
 14 17  1  0
 15 19  1  0
 16 25  1  0
 17 22  1  1
 17 23  1  0
 18 19  1  0
 18 20  1  0
 18 24  1  0
 20 26  1  6
 22 29  1  0
 23 27  1  0
 24 30  1  0
 27 28  1  0
 27 32  1  1
 28 31  1  0
 31 33  1  0
 31 34  1  6
 33 35  1  0
 35 36  1  0
 36 37  2  0
 36 38  1  0
 37 39  1  0
 37 42  1  0
 38 40  2  0
 39 41  2  0
 40 41  1  0
 41 43  1  0
M  CHG  2   1   1   8  -1
M  END
>  <Curated_InChIs>  (11) 
InChI=1S/C34H54O8.Na/c1-9-25(31-21(6)18-34(11-3,42-31)26-16-17-33(40,10-2)23(8)41-26)30(37)22(7)28(35)19(4)12-14-24-15-13-20(5)29(36)27(24)32(38)39;/h13,15,19,21-23,25-26,28,31,35-36,40H,9-12,14,16-18H2,1-8H3,(H,38,39);

>  <PUBCHEM_IUPAC_NAME>  (11) 
sodium;6-[(3R,4S,5S,7R)-7-[(2S,3S,5S)-5-ethyl-5-[(2R,5R,6S)-5-ethyl-5-hydroxy-6-methyloxan-2-yl]-3-methyloxolan-2-yl]-4-hydroxy-3,5-dimethyl-6-oxononyl]-2-hydroxy-3-methylbenzoate

>  <PUBCHEM_COMPOUND_CID>  (11) 
6426773

>  <acvalue>  (11) 
0.47863

>  <Classification>  (11) 
1

>  <SMILES>  (11) 
CC[C@@H](C(=O)[C@@H](C)[C@@H](O)[C@H](C)CCc1ccc(C)c(O)c1C(=O)[O-])[C@H]1O[C@](CC)([C@H]2CC[C@](O)(CC)[C@H](C)O2)C[C@@H]1C.[Na+]

>  <InChIKey>  (11) 
RDHDUYAKDYQPEW-HWLWSTNVSA-M

$$$$
441371
     RDKit          2D

 72 73  0  0  1  0  0  0  0  0999 V2000
    1.4030    0.8660    0.0000 S   0  0  0  0  0  0  0  0  0  0  0  0
    5.7331    9.0230    0.0000 O   0  0  0  0  0  0  0  0  0  0  0  0
    7.4651    9.0230    0.0000 O   0  0  0  0  0  0  0  0  0  0  0  0
    4.0010    9.0230    0.0000 O   0  0  0  0  0  0  0  0  0  0  0  0
    3.9012   10.7818    0.0000 O   0  0  0  0  0  0  0  0  0  0  0  0
    9.1972    9.0230    0.0000 O   0  0  0  0  0  0  0  0  0  0  0  0
    9.1972   12.0230    0.0000 O   0  0  0  0  0  0  0  0  0  0  0  0
    5.7331    7.0230    0.0000 O   0  0  0  0  0  0  0  0  0  0  0  0
    9.6972    6.1569    0.0000 O   0  0  0  0  0  0  0  0  0  0  0  0
   10.9292    7.0230    0.0000 O   0  0  0  0  0  0  0  0  0  0  0  0
    8.5900   14.4889    0.0000 O   0  0  0  0  0  0  0  0  0  0  0  0
    8.1080   12.2570    0.0000 O   0  0  0  0  0  0  0  0  0  0  0  0
    4.8671   13.5230    0.0000 O   0  0  0  0  0  0  0  0  0  0  0  0
    7.4651   12.0230    0.0000 O   0  0  0  0  0  0  0  0  0  0  0  0
    5.3910    5.0833    0.0000 O   0  0  0  0  0  0  0  0  0  0  0  0
    2.2690    1.3660    0.0000 O   0  0  0  0  0  0  0  0  0  0  0  0
    0.5369    0.3660    0.0000 O   0  0  0  0  0  0  0  0  0  0  0  0
    0.9030    1.7320    0.0000 O   0  0  0  0  0  0  0  0  0  0  0  0
    1.9030    0.0000    0.0000 O   0  0  0  0  0  0  0  0  0  0  0  0
    4.0010    6.0230    0.0000 N   0  0  0  0  0  0  0  0  0  0  0  0
    5.7331   10.0230    0.0000 C   0  0  0  0  0  0  0  0  0  0  0  0
    6.5991   10.5230    0.0000 C   0  0  0  0  0  0  0  0  0  0  0  0
    4.8671   10.5230    0.0000 C   0  0  0  0  0  0  0  0  0  0  0  0
    7.4651   10.0230    0.0000 C   0  0  0  0  0  0  0  0  0  0  0  0
    4.8671   11.5230    0.0000 C   0  0  0  0  0  0  0  0  0  0  0  0
    8.3312   10.5230    0.0000 C   0  0  0  0  0  0  0  0  0  0  0  0
    4.8671    8.5230    0.0000 C   0  0  0  0  0  0  0  0  0  0  0  0
    5.7331   12.0230    0.0000 C   0  0  0  0  0  0  0  0  0  0  0  0
    4.8671    7.5230    0.0000 C   0  0  0  0  0  0  0  0  0  0  0  0
    4.0010    7.0230    0.0000 C   0  0  0  0  0  0  0  0  0  0  0  0
    6.5991   11.5230    0.0000 C   0  0  0  0  0  0  0  0  0  0  0  0
    8.3312    8.5230    0.0000 C   0  0  0  0  0  0  0  0  0  0  0  0
    9.1972    7.0230    0.0000 C   0  0  0  0  0  0  0  0  0  0  0  0
    4.1600    9.8158    0.0000 C   0  0  0  0  0  0  0  0  0  0  0  0
    8.3312    7.5230    0.0000 C   0  0  0  0  0  0  0  0  0  0  0  0
    3.1350    7.5230    0.0000 C   0  0  0  0  0  0  0  0  0  0  0  0
   10.0632    7.5230    0.0000 C   0  0  0  0  0  0  0  0  0  0  0  0
    3.1350    8.5230    0.0000 C   0  0  0  0  0  0  0  0  0  0  0  0
    6.5991   13.5230    0.0000 C   0  0  0  0  0  0  0  0  0  0  0  0
    8.3312   13.5230    0.0000 C   0  0  0  0  0  0  0  0  0  0  0  0
    7.4651   13.0230    0.0000 C   0  0  0  0  0  0  0  0  0  0  0  0
   10.0632    8.5230    0.0000 C   0  0  0  0  0  0  0  0  0  0  0  0
    5.7331   13.0230    0.0000 C   0  0  0  0  0  0  0  0  0  0  0  0
    9.1972   13.0230    0.0000 C   0  0  0  0  0  0  0  0  0  0  0  0
    8.3312   11.5230    0.0000 C   0  0  0  0  0  0  0  0  0  0  0  0
    9.1972   10.0230    0.0000 C   0  0  0  0  0  0  0  0  0  0  0  0
    5.7331   11.0230    0.0000 C   0  0  0  0  0  0  0  0  0  0  0  0
    8.6972    6.1569    0.0000 C   0  0  0  0  0  0  0  0  0  0  0  0
    2.2690    9.0230    0.0000 C   0  0  0  0  0  0  0  0  0  0  0  0
    6.5991   14.5230    0.0000 C   0  0  0  0  0  0  0  0  0  0  0  0
    7.7576   14.3421    0.0000 C   0  0  0  0  0  0  0  0  0  0  0  0
   10.0632   13.5230    0.0000 C   0  0  0  0  0  0  0  0  0  0  0  0
   10.9292    9.0230    0.0000 C   0  0  0  0  0  0  0  0  0  0  0  0
    3.1350    5.5230    0.0000 C   0  0  0  0  0  0  0  0  0  0  0  0
    4.3431    5.0833    0.0000 C   0  0  0  0  0  0  0  0  0  0  0  0
   10.9292   13.0230    0.0000 C   0  0  0  0  0  0  0  0  0  0  0  0
    5.7331    6.0230    0.0000 C   0  0  0  0  0  0  0  0  0  0  0  0
    9.1972    5.2909    0.0000 C   0  0  0  0  0  0  0  0  0  0  0  0
    6.5991    5.5230    0.0000 C   0  0  0  0  0  0  0  0  0  0  0  0
    6.5991    4.5230    0.0000 C   0  0  0  0  0  0  0  0  0  0  0  0
    7.4651    1.3660    0.0000 C   0  0  0  0  0  0  0  0  0  0  0  0
    8.3312    0.8660    0.0000 C   0  0  0  0  0  0  0  0  0  0  0  0
    6.5991    0.8660    0.0000 C   0  0  0  0  0  0  0  0  0  0  0  0
    9.1972    1.3660    0.0000 C   0  0  0  0  0  0  0  0  0  0  0  0
    5.7331    1.3660    0.0000 C   0  0  0  0  0  0  0  0  0  0  0  0
   10.0632    0.8660    0.0000 C   0  0  0  0  0  0  0  0  0  0  0  0
    4.8671    0.8660    0.0000 C   0  0  0  0  0  0  0  0  0  0  0  0
   10.9292    1.3660    0.0000 C   0  0  0  0  0  0  0  0  0  0  0  0
    4.0010    1.3660    0.0000 C   0  0  0  0  0  0  0  0  0  0  0  0
   11.7953    0.8660    0.0000 C   0  0  0  0  0  0  0  0  0  0  0  0
    3.1350    0.8660    0.0000 C   0  0  0  0  0  0  0  0  0  0  0  0
   12.6613    1.3660    0.0000 C   0  0  0  0  0  0  0  0  0  0  0  0
  1 16  1  0
  1 17  1  0
  1 18  2  0
  1 19  2  0
 21  2  1  1
 27  2  1  1
 24  3  1  1
 32  3  1  6
  4 27  1  0
  4 38  1  0
 23  5  1  0
  6 32  1  0
  6 42  1  0
  7 44  1  0
  7 45  1  0
 29  8  1  6
  8 57  1  0
 33  9  1  0
  9 58  1  0
 37 10  1  6
 40 11  1  0
 41 12  1  6
 13 43  2  0
 14 45  2  0
 15 57  2  0
 16 71  1  0
 30 20  1  1
 20 54  1  0
 20 55  1  0
 21 22  1  0
 21 23  1  0
 22 24  1  0
 22 31  1  1
 23 25  1  0
 23 34  1  1
 24 26  1  0
 25 28  1  0
 26 45  1  0
 26 46  1  6
 27 29  1  0
 28 43  1  0
 28 47  1  6
 29 30  1  0
 30 36  1  0
 32 35  1  0
 33 35  1  0
 33 37  1  0
 33 48  1  1
 36 38  1  0
 37 42  1  0
 38 49  1  1
 39 41  1  0
 39 43  1  0
 39 50  1  6
 40 41  1  0
 40 44  1  0
 40 51  1  1
 42 53  1  1
 44 52  1  1
 52 56  1  0
 57 59  1  0
 59 60  1  0
 61 62  1  0
 61 63  1  0
 62 64  1  0
 63 65  1  0
 64 66  1  0
 65 67  1  0
 66 68  1  0
 67 69  1  0
 68 70  1  0
 69 71  1  0
 70 72  1  0
M  END
>  <Curated_InChIs>  (12) 
InChI=1S/C40H71NO14.C12H26O4S/c1-15-27-40(11,48)33(44)22(5)30(43)20(3)18-38(9,47)35(55-37-32(53-28(42)16-2)26(41(12)13)17-21(4)50-37)23(6)31(24(7)36(46)52-27)54-29-19-39(10,49-14)34(45)25(8)51-29;1-2-3-4-5-6-7-8-9-10-11-12-16-17(13,14)15/h20-27,29,31-35,37,44-45,47-48H,15-19H2,1-14H3;2-12H2,1H3,(H,13,14,15)

>  <PUBCHEM_IUPAC_NAME>  (12) 
[(2S,3R,4S,6R)-4-(dimethylamino)-2-[[(3R,4S,5S,6R,7R,9R,11R,12R,13S,14R)-14-ethyl-7,12,13-trihydroxy-4-[(2R,4R,5S,6S)-5-hydroxy-4-methoxy-4,6-dimethyloxan-2-yl]oxy-3,5,7,9,11,13-hexamethyl-2,10-dioxo-oxacyclotetradec-6-yl]oxy]-6-methyloxan-3-yl] propanoate;dodecyl hydrogen sulfate

>  <PUBCHEM_COMPOUND_CID>  (12) 
441371

>  <acvalue>  (12) 
4.36516

>  <Classification>  (12) 
1

>  <SMILES>  (12) 
CCC(=O)O[C@H]1[C@H](O[C@@H]2[C@@H](C)[C@H](O[C@H]3C[C@@](C)(OC)[C@@H](O)[C@H](C)O3)[C@@H](C)C(=O)O[C@H](CC)[C@@](C)(O)[C@H](O)[C@@H](C)C(=O)[C@H](C)C[C@@]2(C)O)O[C@H](C)C[C@@H]1N(C)C.CCCCCCCCCCCCOS(=O)(=O)O

>  <InChIKey>  (12) 
AWMFUEJKWXESNL-JZBHMOKNSA-N

$$$$
76333164
     RDKit          2D

 31 35  0  0  1  0  0  0  0  0999 V2000
    2.5369    0.1101    0.0000 O   0  0  0  0  0  0  0  0  0  0  0  0
    4.2197    3.3068    0.0000 O   0  0  0  0  0  0  0  0  0  0  0  0
    5.1471   -4.4592    0.0000 O   0  0  0  0  0  0  0  0  0  0  0  0
    2.4125    3.2470    0.0000 O   0  0  0  0  0  0  0  0  0  0  0  0
    7.1146    4.4592    0.0000 O   0  0  0  0  0  0  0  0  0  0  0  0
    5.1350   -1.3899    0.0000 C   0  0  0  0  0  0  0  0  0  0  0  0
    5.1350   -0.3899    0.0000 C   0  0  0  0  0  0  0  0  0  0  0  0
    4.2690    0.1101    0.0000 C   0  0  0  0  0  0  0  0  0  0  0  0
    4.2690   -1.8899    0.0000 C   0  0  0  0  0  0  0  0  0  0  0  0
    3.4030   -0.3899    0.0000 C   0  0  0  0  0  0  0  0  0  0  0  0
    3.4030   -1.3899    0.0000 C   0  0  0  0  0  0  0  0  0  0  0  0
    6.0450    0.1169    0.0000 C   0  0  0  0  0  0  0  0  0  0  0  0
    4.2529   -2.9314    0.0000 C   0  0  0  0  0  0  0  0  0  0  0  0
    5.1510    1.6793    0.0000 C   0  0  0  0  0  0  0  0  0  0  0  0
    6.0450   -1.8968    0.0000 C   0  0  0  0  0  0  0  0  0  0  0  0
    4.2529    1.1516    0.0000 C   0  0  0  0  0  0  0  0  0  0  0  0
    6.0530    1.1585    0.0000 C   0  0  0  0  0  0  0  0  0  0  0  0
    6.0010   -0.8899    0.0000 C   0  0  0  0  0  0  0  0  0  0  0  0
    3.4030    0.6101    0.0000 C   0  0  0  0  0  0  0  0  0  0  0  0
    6.0530   -2.9384    0.0000 C   0  0  0  0  0  0  0  0  0  0  0  0
    5.1510   -3.4592    0.0000 C   0  0  0  0  0  0  0  0  0  0  0  0
    5.1593    2.7643    0.0000 C   0  0  0  0  0  0  0  0  0  0  0  0
    3.7430   -3.7916    0.0000 C   0  0  0  0  0  0  0  0  0  0  0  0
    3.2530   -2.9199    0.0000 C   0  0  0  0  0  0  0  0  0  0  0  0
    6.0131    2.1860    0.0000 C   0  0  0  0  0  0  0  0  0  0  0  0
    3.3010    1.6722    0.0000 C   0  0  0  0  0  0  0  0  0  0  0  0
    3.2843    2.7571    0.0000 C   0  0  0  0  0  0  0  0  0  0  0  0
    6.0273    3.2609    0.0000 C   0  0  0  0  0  0  0  0  0  0  0  0
    6.9392    2.8507    0.0000 C   0  0  0  0  0  0  0  0  0  0  0  0
    6.1356    4.2550    0.0000 C   0  0  0  0  0  0  0  0  0  0  0  0
    7.6112    3.5912    0.0000 C   0  0  0  0  0  0  0  0  0  0  0  0
 10  1  1  1
  2 22  1  0
  2 27  1  0
  3 21  2  0
  4 27  2  0
  5 30  1  0
  5 31  1  0
  6  7  1  0
  6  9  1  0
  6 15  1  0
  6 18  1  1
  7  8  1  0
  7 12  1  1
  8 10  1  0
  8 16  1  0
  8 19  1  1
  9 11  1  1
  9 13  1  0
 10 11  1  0
 12 17  1  0
 13 21  1  0
 13 23  1  0
 13 24  1  0
 14 16  1  0
 14 17  1  0
 14 22  1  0
 14 25  1  6
 15 20  1  0
 16 26  2  0
 20 21  1  0
 22 28  1  6
 26 27  1  0
 28 29  1  0
 28 30  2  0
 29 31  2  0
M  END
>  <Curated_InChIs>  (13) 
InChI=1S/C26H34O5/c1-23(2)17-12-20(28)26(5)16(24(17,3)10-7-19(23)27)6-9-25(4)18(26)13-21(29)31-22(25)15-8-11-30-14-15/h8,11,13-14,16-17,20,22,28H,6-7,9-10,12H2,1-5H3

>  <PUBCHEM_IUPAC_NAME>  (13) 
(1S,4bS,5R,6aS,10aS,10bS,12aS)-1-(furan-3-yl)-5-hydroxy-4b,7,7,10a,12a-pentamethyl-5,6,6a,9,10,10b,11,12-octahydro-1H-naphtho[2,1-f]isochromene-3,8-dione

>  <PUBCHEM_COMPOUND_CID>  (13) 
76333164

>  <acvalue>  (13) 
6.30957

>  <Classification>  (13) 
1

>  <SMILES>  (13) 
CC1(C)C(=O)CC[C@]2(C)[C@@H]1C[C@@H](O)[C@]1(C)C3=CC(=O)O[C@H](c4ccoc4)[C@@]3(C)CC[C@@H]21

>  <InChIKey>  (13) 
BQDRKSSNLHIYIM-FGYUCKKHSA-N

$$$$
118213818
     RDKit          2D

 92 93  0  0  1  0  0  0  0  0999 V2000
    9.9445   -5.6277    0.0000 O   0  0  0  0  0  0  0  0  0  0  0  0
    2.7558    7.4764    0.0000 O   0  0  0  0  0  0  0  0  0  0  0  0
    4.9521    4.3042    0.0000 O   0  0  0  0  0  0  0  0  0  0  0  0
   11.5582   -4.9728    0.0000 O   0  0  0  0  0  0  0  0  0  0  0  0
   14.6934   -3.3565    0.0000 O   0  0  0  0  0  0  0  0  0  0  0  0
    4.1206    0.8763    0.0000 O   0  0  0  0  0  0  0  0  0  0  0  0
    8.0469   -4.6375    0.0000 O   0  0  0  0  0  0  0  0  0  0  0  0
   16.4571   -0.3017    0.0000 O   0  0  0  0  0  0  0  0  0  0  0  0
    7.5050    6.7383    0.0000 O   0  0  0  0  0  0  0  0  0  0  0  0
    5.2742   -2.4571    0.0000 O   0  0  0  0  0  0  0  0  0  0  0  0
   10.9686    7.4058    0.0000 O   0  0  0  0  0  0  0  0  0  0  0  0
   16.2893    3.2216    0.0000 O   0  0  0  0  0  0  0  0  0  0  0  0
   14.2432    6.0949    0.0000 O   0  0  0  0  0  0  0  0  0  0  0  0
    5.1670    1.9227    0.0000 N   0  0  0  0  0  0  0  0  0  0  0  0
    3.1343    5.5125    0.0000 N   0  0  0  0  0  0  0  0  0  0  0  0
   13.2173   -3.2509    0.0000 N   0  0  0  0  0  0  0  0  0  0  0  0
   10.3735   -4.0859    0.0000 N   0  0  0  0  0  0  0  0  0  0  0  0
   15.1582   -1.0110    0.0000 N   0  0  0  0  0  0  0  0  0  0  0  0
    6.3982    4.6187    0.0000 N   0  0  0  0  0  0  0  0  0  0  0  0
    5.5888   -1.0110    0.0000 N   0  0  0  0  0  0  0  0  0  0  0  0
    7.5297   -3.2509    0.0000 N   0  0  0  0  0  0  0  0  0  0  0  0
    8.8916    6.2211    0.0000 N   0  0  0  0  0  0  0  0  0  0  0  0
   15.5800    1.9227    0.0000 N   0  0  0  0  0  0  0  0  0  0  0  0
   11.8554    6.2211    0.0000 N   0  0  0  0  0  0  0  0  0  0  0  0
   14.3488    4.6187    0.0000 N   0  0  0  0  0  0  0  0  0  0  0  0
    4.4578    3.2216    0.0000 C   0  0  0  0  0  0  0  0  0  0  0  0
    5.4028    2.8945    0.0000 C   0  0  0  0  0  0  0  0  0  0  0  0
    4.2685    4.2035    0.0000 C   0  0  0  0  0  0  0  0  0  0  0  0
   12.3285   -3.7091    0.0000 C   0  0  0  0  0  0  0  0  0  0  0  0
    3.3235    4.5306    0.0000 C   0  0  0  0  0  0  0  0  0  0  0  0
    9.3780   -3.9909    0.0000 C   0  0  0  0  0  0  0  0  0  0  0  0
   14.6582   -1.8770    0.0000 C   0  0  0  0  0  0  0  0  0  0  0  0
    9.1888   -4.9728    0.0000 C   0  0  0  0  0  0  0  0  0  0  0  0
   12.7001   -4.6375    0.0000 C   0  0  0  0  0  0  0  0  0  0  0  0
    8.5339   -5.7285    0.0000 C   0  0  0  0  0  0  0  0  0  0  0  0
    3.7020    2.5667    0.0000 C   0  0  0  0  0  0  0  0  0  0  0  0
    5.8182    3.8042    0.0000 C   0  0  0  0  0  0  0  0  0  0  0  0
   15.4728   -2.4571    0.0000 C   0  0  0  0  0  0  0  0  0  0  0  0
   11.3690   -3.9909    0.0000 C   0  0  0  0  0  0  0  0  0  0  0  0
    7.1220    5.3088    0.0000 C   0  0  0  0  0  0  0  0  0  0  0  0
   14.0034   -2.6328    0.0000 C   0  0  0  0  0  0  0  0  0  0  0  0
    2.1892    5.8396    0.0000 C   0  0  0  0  0  0  0  0  0  0  0  0
    3.8900    6.1674    0.0000 C   0  0  0  0  0  0  0  0  0  0  0  0
   15.6276    0.9238    0.0000 C   0  0  0  0  0  0  0  0  0  0  0  0
   16.4683   -2.5521    0.0000 C   0  0  0  0  0  0  0  0  0  0  0  0
    6.5038    6.0949    0.0000 C   0  0  0  0  0  0  0  0  0  0  0  0
    5.1194    0.9238    0.0000 C   0  0  0  0  0  0  0  0  0  0  0  0
    5.2617   -0.0660    0.0000 C   0  0  0  0  0  0  0  0  0  0  0  0
    8.4186   -3.7091    0.0000 C   0  0  0  0  0  0  0  0  0  0  0  0
   15.4853   -0.0660    0.0000 C   0  0  0  0  0  0  0  0  0  0  0  0
   16.6265    0.8763    0.0000 C   0  0  0  0  0  0  0  0  0  0  0  0
    8.8610   -6.6736    0.0000 C   0  0  0  0  0  0  0  0  0  0  0  0
    6.7437   -2.6328    0.0000 C   0  0  0  0  0  0  0  0  0  0  0  0
    4.1772    2.0650    0.0000 C   0  0  0  0  0  0  0  0  0  0  0  0
   13.6900   -4.7798    0.0000 C   0  0  0  0  0  0  0  0  0  0  0  0
   12.0820   -5.4236    0.0000 C   0  0  0  0  0  0  0  0  0  0  0  0
    7.9632    5.8494    0.0000 C   0  0  0  0  0  0  0  0  0  0  0  0
    2.0000    6.8215    0.0000 C   0  0  0  0  0  0  0  0  0  0  0  0
    3.7008    7.1493    0.0000 C   0  0  0  0  0  0  0  0  0  0  0  0
    9.8735    6.4104    0.0000 C   0  0  0  0  0  0  0  0  0  0  0  0
    7.5520   -5.5393    0.0000 C   0  0  0  0  0  0  0  0  0  0  0  0
   13.7580   -4.0922    0.0000 C   0  0  0  0  0  0  0  0  0  0  0  0
   10.3735   -5.0859    0.0000 C   0  0  0  0  0  0  0  0  0  0  0  0
   17.5153    1.3345    0.0000 C   0  0  0  0  0  0  0  0  0  0  0  0
    6.0888   -1.8770    0.0000 C   0  0  0  0  0  0  0  0  0  0  0  0
    9.7785    7.4058    0.0000 C   0  0  0  0  0  0  0  0  0  0  0  0
   16.0679   -1.4264    0.0000 C   0  0  0  0  0  0  0  0  0  0  0  0
   16.8837   -3.4618    0.0000 C   0  0  0  0  0  0  0  0  0  0  0  0
   17.0483   -1.7375    0.0000 C   0  0  0  0  0  0  0  0  0  0  0  0
    5.5140    5.9525    0.0000 C   0  0  0  0  0  0  0  0  0  0  0  0
    6.8755    7.0232    0.0000 C   0  0  0  0  0  0  0  0  0  0  0  0
    6.0536   -3.3565    0.0000 C   0  0  0  0  0  0  0  0  0  0  0  0
    4.2899   -0.3017    0.0000 C   0  0  0  0  0  0  0  0  0  0  0  0
   10.1939    8.3155    0.0000 C   0  0  0  0  0  0  0  0  0  0  0  0
   10.8735    6.4104    0.0000 C   0  0  0  0  0  0  0  0  0  0  0  0
   15.3443    2.8945    0.0000 C   0  0  0  0  0  0  0  0  0  0  0  0
    8.2061   -7.4293    0.0000 C   0  0  0  0  0  0  0  0  0  0  0  0
    4.6792   -1.4264    0.0000 C   0  0  0  0  0  0  0  0  0  0  0  0
    8.6098    7.1806    0.0000 C   0  0  0  0  0  0  0  0  0  0  0  0
   18.3566    0.7938    0.0000 C   0  0  0  0  0  0  0  0  0  0  0  0
   17.5629    2.3334    0.0000 C   0  0  0  0  0  0  0  0  0  0  0  0
   14.9289    3.8042    0.0000 C   0  0  0  0  0  0  0  0  0  0  0  0
   16.5698    2.0650    0.0000 C   0  0  0  0  0  0  0  0  0  0  0  0
    6.3353   -4.3160    0.0000 C   0  0  0  0  0  0  0  0  0  0  0  0
    9.6138    9.1300    0.0000 C   0  0  0  0  0  0  0  0  0  0  0  0
   11.1893    8.4105    0.0000 C   0  0  0  0  0  0  0  0  0  0  0  0
   12.7838    5.8494    0.0000 C   0  0  0  0  0  0  0  0  0  0  0  0
    8.5332   -8.3743    0.0000 C   0  0  0  0  0  0  0  0  0  0  0  0
   13.6251    5.3088    0.0000 C   0  0  0  0  0  0  0  0  0  0  0  0
   15.7949    4.3042    0.0000 C   0  0  0  0  0  0  0  0  0  0  0  0
   13.2420    6.7383    0.0000 C   0  0  0  0  0  0  0  0  0  0  0  0
    7.8783   -9.1300    0.0000 C   0  0  0  0  0  0  0  0  0  0  0  0
 33  1  1  6
  2 58  1  0
  2 59  1  0
  3 37  2  0
  4 39  2  0
  5 41  2  0
  6 47  2  0
  7 49  2  0
  8 50  2  0
  9 57  2  0
 10 65  2  0
 11 75  2  0
 12 76  2  0
 13 89  2  0
 14 27  1  0
 14 47  1  0
 14 54  1  0
 15 30  1  0
 15 42  1  0
 15 43  1  0
 16 29  1  0
 16 41  1  0
 16 62  1  0
 17 31  1  0
 17 39  1  0
 17 63  1  0
 18 32  1  0
 18 50  1  0
 18 67  1  0
 19 37  1  0
 19 40  1  0
 20 48  1  0
 20 65  1  0
 20 78  1  0
 21 49  1  0
 21 53  1  0
 22 57  1  0
 22 60  1  0
 22 79  1  0
 23 44  1  0
 23 76  1  0
 23 83  1  0
 24 75  1  0
 24 87  1  0
 25 82  1  0
 25 89  1  0
 26 27  1  0
 26 28  1  0
 26 36  1  6
 27 37  1  1
 28 30  1  0
 29 34  1  1
 29 39  1  0
 31 33  1  0
 31 49  1  1
 32 38  1  1
 32 41  1  0
 33 35  1  0
 34 55  1  0
 34 56  1  0
 35 52  1  0
 35 61  1  1
 38 45  1  0
 40 46  1  1
 40 57  1  0
 42 58  1  0
 43 59  1  0
 44 50  1  0
 44 51  1  1
 45 68  1  0
 45 69  1  0
 46 70  1  0
 46 71  1  0
 47 48  1  0
 48 73  1  6
 51 64  1  0
 52 77  1  0
 53 65  1  0
 53 72  1  1
 60 66  1  1
 60 75  1  0
 64 80  1  0
 64 81  1  0
 66 74  1  0
 72 84  1  0
 74 85  1  0
 74 86  1  0
 76 82  1  0
 77 88  2  0
 82 90  1  6
 87 89  1  0
 87 91  1  1
 88 92  1  0
M  END
>  <Curated_InChIs>  (14) 
InChI=1S/C67H120N12O13/c1-25-27-28-44(14)56(80)55-60(84)70-48(26-2)63(87)72(18)47(17)62(86)77(23)54(43(13)29-30-79-31-33-92-34-32-79)59(83)71-52(41(9)10)66(90)73(19)49(35-38(3)4)58(82)68-45(15)57(81)69-46(16)61(85)74(20)50(36-39(5)6)64(88)75(21)51(37-40(7)8)65(89)76(22)53(42(11)12)67(91)78(55)24/h25,27,38-56,80H,26,28-37H2,1-24H3,(H,68,82)(H,69,81)(H,70,84)(H,71,83)

>  <PUBCHEM_IUPAC_NAME>  (14) 
(3S,6S,9S,12R,15S,18S,21S,24S,27R,30S,33S)-30-ethyl-33-[(E,1R,2R)-1-hydroxy-2-methylhex-4-enyl]-1,4,7,10,12,15,19,25,27,28-decamethyl-6,9,18-tris(2-methylpropyl)-24-[(2R)-4-morpholin-4-ylbutan-2-yl]-3,21-di(propan-2-yl)-1,4,7,10,13,16,19,22,25,28,31-undecazacyclotritriacontane-2,5,8,11,14,17,20,23,26,29,32-undecone

>  <PUBCHEM_COMPOUND_CID>  (14) 
118213818

>  <acvalue>  (14) 
3.9

>  <Classification>  (14) 
1

>  <SMILES>  (14) 
C/C=C/C[C@@H](C)[C@@H](O)[C@H]1C(=O)N[C@@H](CC)C(=O)N(C)[C@H](C)C(=O)N(C)[C@@H]([C@H](C)CCN2CCOCC2)C(=O)N[C@@H](C(C)C)C(=O)N(C)[C@@H](CC(C)C)C(=O)N[C@@H](C)C(=O)N[C@H](C)C(=O)N(C)[C@@H](CC(C)C)C(=O)N(C)[C@@H](CC(C)C)C(=O)N(C)[C@@H](C(C)C)C(=O)N1C

>  <InChIKey>  (14) 
OVNDMANGULXPPV-WIQLLUQNSA-N

$$$$
89825693
     RDKit          2D

 17 18  0  0  0  0  0  0  0  0999 V2000
    6.8100    2.0684    0.0000 S   0  0  0  0  0  0  0  0  0  0  0  0
    2.5369   -1.5194    0.0000 O   0  0  0  0  0  0  0  0  0  0  0  0
    3.4030   -0.0194    0.0000 O   0  0  0  0  0  0  0  0  0  0  0  0
    5.1350   -0.0194    0.0000 N   0  0  0  0  0  0  0  0  0  0  0  0
    6.0010   -2.5194    0.0000 N   0  0  0  0  0  0  0  0  0  0  0  0
    6.0010    0.4806    0.0000 C   0  0  0  0  0  0  0  0  0  0  0  0
    6.0010    1.4806    0.0000 C   0  0  0  0  0  0  0  0  0  0  0  0
    5.1920    2.0684    0.0000 C   0  0  0  0  0  0  0  0  0  0  0  0
    5.1350   -1.0194    0.0000 C   0  0  0  0  0  0  0  0  0  0  0  0
    5.5010    3.0194    0.0000 C   0  0  0  0  0  0  0  0  0  0  0  0
    4.2690   -1.5194    0.0000 C   0  0  0  0  0  0  0  0  0  0  0  0
    4.2410    1.7594    0.0000 C   0  0  0  0  0  0  0  0  0  0  0  0
    6.5010    3.0194    0.0000 C   0  0  0  0  0  0  0  0  0  0  0  0
    6.0010   -1.5194    0.0000 C   0  0  0  0  0  0  0  0  0  0  0  0
    4.2690   -2.5194    0.0000 C   0  0  0  0  0  0  0  0  0  0  0  0
    5.1350   -3.0194    0.0000 C   0  0  0  0  0  0  0  0  0  0  0  0
    3.4030   -1.0194    0.0000 C   0  0  0  0  0  0  0  0  0  0  0  0
  1  7  1  0
  1 13  1  0
  2 17  1  0
  3 17  2  0
  4  6  1  0
  4  9  1  0
  5 14  2  0
  5 16  1  0
  6  7  1  0
  7  8  2  0
  8 10  1  0
  8 12  1  0
  9 11  2  0
  9 14  1  0
 10 13  2  0
 11 15  1  0
 11 17  1  0
 15 16  2  0
M  END
>  <Curated_InChIs>  (15) 
InChI=1S/C12H12N2O2S/c1-8-3-5-17-11(8)7-14-10-6-13-4-2-9(10)12(15)16/h2-6,14H,7H2,1H3,(H,15,16)

>  <PUBCHEM_IUPAC_NAME>  (15) 
3-[(3-methylthiophen-2-yl)methylamino]pyridine-4-carboxylic acid

>  <PUBCHEM_COMPOUND_CID>  (15) 
89825693

>  <acvalue>  (15) 
8.0

>  <Classification>  (15) 
1

>  <SMILES>  (15) 
Cc1ccsc1CNc1cnccc1C(=O)O

>  <InChIKey>  (15) 
IDVBVEOFBRZZEI-UHFFFAOYSA-N

$$$$
155519454
     RDKit          2D

 33 36  0  0  0  0  0  0  0  0999 V2000
   12.3923   -4.2500    0.0000 O   0  0  0  0  0  0  0  0  0  0  0  0
    5.4641    0.7500    0.0000 O   0  0  0  0  0  0  0  0  0  0  0  0
    6.3301    2.2500    0.0000 O   0  0  0  0  0  0  0  0  0  0  0  0
   10.6603   -2.2500    0.0000 N   0  0  0  0  0  0  0  0  0  0  0  0
    8.9282   -1.2500    0.0000 N   0  0  0  0  0  0  0  0  0  0  0  0
    8.0622    2.2500    0.0000 N   0  0  0  0  0  0  0  0  0  0  0  0
    7.1962    4.7500    0.0000 N   0  0  0  0  0  0  0  0  0  0  0  0
    8.0622    5.2500    0.0000 N   0  0  0  0  0  0  0  0  0  0  0  0
   10.6603   -1.2500    0.0000 C   0  0  0  0  0  0  0  0  0  0  0  0
    9.7942   -2.7500    0.0000 C   0  0  0  0  0  0  0  0  0  0  0  0
    9.7942   -0.7500    0.0000 C   0  0  0  0  0  0  0  0  0  0  0  0
    8.9282   -2.2500    0.0000 C   0  0  0  0  0  0  0  0  0  0  0  0
   11.5263   -2.7500    0.0000 C   0  0  0  0  0  0  0  0  0  0  0  0
    8.0622   -0.7500    0.0000 C   0  0  0  0  0  0  0  0  0  0  0  0
   11.5263   -3.7500    0.0000 C   0  0  0  0  0  0  0  0  0  0  0  0
    8.0622    0.2500    0.0000 C   0  0  0  0  0  0  0  0  0  0  0  0
    7.1962   -1.2500    0.0000 C   0  0  0  0  0  0  0  0  0  0  0  0
    7.1962    0.7500    0.0000 C   0  0  0  0  0  0  0  0  0  0  0  0
    6.3301   -0.7500    0.0000 C   0  0  0  0  0  0  0  0  0  0  0  0
    6.3301    0.2500    0.0000 C   0  0  0  0  0  0  0  0  0  0  0  0
    7.1962    1.7500    0.0000 C   0  0  0  0  0  0  0  0  0  0  0  0
   12.3923   -5.2500    0.0000 C   0  0  0  0  0  0  0  0  0  0  0  0
    4.5981    0.2500    0.0000 C   0  0  0  0  0  0  0  0  0  0  0  0
    3.7320    0.7500    0.0000 C   0  0  0  0  0  0  0  0  0  0  0  0
    8.0622    3.2500    0.0000 C   0  0  0  0  0  0  0  0  0  0  0  0
    3.7320    1.7500    0.0000 C   0  0  0  0  0  0  0  0  0  0  0  0
    2.8660    0.2500    0.0000 C   0  0  0  0  0  0  0  0  0  0  0  0
    8.9282    3.7500    0.0000 C   0  0  0  0  0  0  0  0  0  0  0  0
    7.1962    3.7500    0.0000 C   0  0  0  0  0  0  0  0  0  0  0  0
    2.8660    2.2500    0.0000 C   0  0  0  0  0  0  0  0  0  0  0  0
    2.0000    0.7500    0.0000 C   0  0  0  0  0  0  0  0  0  0  0  0
    2.0000    1.7500    0.0000 C   0  0  0  0  0  0  0  0  0  0  0  0
    8.9282    4.7500    0.0000 C   0  0  0  0  0  0  0  0  0  0  0  0
  1 15  1  0
  1 22  1  0
  2 20  1  0
  2 23  1  0
  3 21  2  0
  4  9  1  0
  4 10  1  0
  4 13  1  0
  5 11  1  0
  5 12  1  0
  5 14  1  0
  6 21  1  0
  6 25  1  0
  7  8  2  0
  7 29  1  0
  8 33  1  0
  9 11  1  0
 10 12  1  0
 13 15  1  0
 14 16  2  0
 14 17  1  0
 16 18  1  0
 17 19  2  0
 18 20  2  0
 18 21  1  0
 19 20  1  0
 23 24  1  0
 24 26  2  0
 24 27  1  0
 25 28  1  0
 25 29  2  0
 26 30  1  0
 27 31  2  0
 28 33  2  0
 30 32  2  0
 31 32  1  0
M  END
>  <Curated_InChIs>  (16) 
InChI=1S/C25H29N5O3/c1-32-16-15-29-11-13-30(14-12-29)22-7-8-24(33-19-20-5-3-2-4-6-20)23(17-22)25(31)28-21-9-10-26-27-18-21/h2-10,17-18H,11-16,19H2,1H3,(H,26,28,31)

>  <PUBCHEM_IUPAC_NAME>  (16) 
5-[4-(2-methoxyethyl)piperazin-1-yl]-2-phenylmethoxy-N-pyridazin-4-ylbenzamide

>  <PUBCHEM_COMPOUND_CID>  (16) 
155519454

>  <acvalue>  (16) 
39.8107

>  <Classification>  (16) 
0

>  <SMILES>  (16) 
COCCN1CCN(c2ccc(OCc3ccccc3)c(C(=O)Nc3ccnnc3)c2)CC1

>  <InChIKey>  (16) 
AJKHEQUQNWCJNL-UHFFFAOYSA-N

$$$$
155525803
     RDKit          2D

 29 32  0  0  0  0  0  0  0  0999 V2000
   10.6603   -3.5000    0.0000 O   0  0  0  0  0  0  0  0  0  0  0  0
    5.4641   -0.5000    0.0000 O   0  0  0  0  0  0  0  0  0  0  0  0
    6.3301    1.0000    0.0000 O   0  0  0  0  0  0  0  0  0  0  0  0
    8.9282   -2.5000    0.0000 N   0  0  0  0  0  0  0  0  0  0  0  0
    8.0622    1.0000    0.0000 N   0  0  0  0  0  0  0  0  0  0  0  0
    8.9282    3.5000    0.0000 N   0  0  0  0  0  0  0  0  0  0  0  0
    8.0622    4.0000    0.0000 N   0  0  0  0  0  0  0  0  0  0  0  0
    9.7942   -2.0000    0.0000 C   0  0  0  0  0  0  0  0  0  0  0  0
    8.9282   -3.5000    0.0000 C   0  0  0  0  0  0  0  0  0  0  0  0
   10.6603   -2.5000    0.0000 C   0  0  0  0  0  0  0  0  0  0  0  0
    9.7942   -4.0000    0.0000 C   0  0  0  0  0  0  0  0  0  0  0  0
    8.0622   -2.0000    0.0000 C   0  0  0  0  0  0  0  0  0  0  0  0
    8.0622   -1.0000    0.0000 C   0  0  0  0  0  0  0  0  0  0  0  0
    7.1962   -2.5000    0.0000 C   0  0  0  0  0  0  0  0  0  0  0  0
    7.1962   -0.5000    0.0000 C   0  0  0  0  0  0  0  0  0  0  0  0
    6.3301   -1.0000    0.0000 C   0  0  0  0  0  0  0  0  0  0  0  0
    6.3301   -2.0000    0.0000 C   0  0  0  0  0  0  0  0  0  0  0  0
    7.1962    0.5000    0.0000 C   0  0  0  0  0  0  0  0  0  0  0  0
    4.5981   -1.0000    0.0000 C   0  0  0  0  0  0  0  0  0  0  0  0
    3.7320   -0.5000    0.0000 C   0  0  0  0  0  0  0  0  0  0  0  0
    8.0622    2.0000    0.0000 C   0  0  0  0  0  0  0  0  0  0  0  0
    3.7320    0.5000    0.0000 C   0  0  0  0  0  0  0  0  0  0  0  0
    2.8660   -1.0000    0.0000 C   0  0  0  0  0  0  0  0  0  0  0  0
    2.8660    1.0000    0.0000 C   0  0  0  0  0  0  0  0  0  0  0  0
    2.0000   -0.5000    0.0000 C   0  0  0  0  0  0  0  0  0  0  0  0
    2.0000    0.5000    0.0000 C   0  0  0  0  0  0  0  0  0  0  0  0
    7.1962    2.5000    0.0000 C   0  0  0  0  0  0  0  0  0  0  0  0
    8.9282    2.5000    0.0000 C   0  0  0  0  0  0  0  0  0  0  0  0
    7.1962    3.5000    0.0000 C   0  0  0  0  0  0  0  0  0  0  0  0
  1 10  1  0
  1 11  1  0
  2 16  1  0
  2 19  1  0
  3 18  2  0
  4  8  1  0
  4  9  1  0
  4 12  1  0
  5 18  1  0
  5 21  1  0
  6  7  2  0
  6 28  1  0
  7 29  1  0
  8 10  1  0
  9 11  1  0
 12 13  2  0
 12 14  1  0
 13 15  1  0
 14 17  2  0
 15 16  2  0
 15 18  1  0
 16 17  1  0
 19 20  1  0
 20 22  2  0
 20 23  1  0
 21 27  1  0
 21 28  2  0
 22 24  1  0
 23 25  2  0
 24 26  2  0
 25 26  1  0
 27 29  2  0
M  END
>  <Curated_InChIs>  (17) 
InChI=1S/C22H22N4O3/c27-22(25-18-8-9-23-24-15-18)20-14-19(26-10-12-28-13-11-26)6-7-21(20)29-16-17-4-2-1-3-5-17/h1-9,14-15H,10-13,16H2,(H,23,25,27)

>  <PUBCHEM_IUPAC_NAME>  (17) 
5-morpholin-4-yl-2-phenylmethoxy-N-pyridazin-4-ylbenzamide

>  <PUBCHEM_COMPOUND_CID>  (17) 
155525803

>  <acvalue>  (17) 
15.8489

>  <Classification>  (17) 
0

>  <SMILES>  (17) 
O=C(Nc1ccnnc1)c1cc(N2CCOCC2)ccc1OCc1ccccc1

>  <InChIKey>  (17) 
ABAQMTMQQSSUGL-UHFFFAOYSA-N

$$$$
122678192
     RDKit          2D

 33 36  0  0  1  0  0  0  0  0999 V2000
   12.3994    2.2393    0.0000 S   0  0  0  0  0  0  0  0  0  0  0  0
    8.0413    0.4605    0.0000 O   0  0  0  0  0  0  0  0  0  0  0  0
    8.9073    0.9605    0.0000 O   0  0  0  0  0  0  0  0  0  0  0  0
   12.7085    3.1903    0.0000 O   0  0  0  0  0  0  0  0  0  0  0  0
   12.0904    1.2882    0.0000 O   0  0  0  0  0  0  0  0  0  0  0  0
   10.6394    0.9605    0.0000 N   0  0  0  0  0  0  0  0  0  0  0  0
   11.1394    3.4993    0.0000 N   0  0  0  0  0  0  0  0  0  0  0  0
   10.1394    3.4993    0.0000 N   0  0  0  0  0  0  0  0  0  0  0  0
   13.3505    1.9302    0.0000 N   0  0  0  0  0  0  0  0  0  0  0  0
    4.4727   -3.5340    0.0000 N   0  0  0  0  0  0  0  0  0  0  0  0
    3.4945   -3.7420    0.0000 N   0  0  0  0  0  0  0  0  0  0  0  0
    8.9073   -1.0395    0.0000 C   0  0  0  0  0  0  0  0  0  0  0  0
    9.7734   -0.5395    0.0000 C   0  0  0  0  0  0  0  0  0  0  0  0
    8.9073   -2.0395    0.0000 C   0  0  0  0  0  0  0  0  0  0  0  0
   10.6394   -1.0395    0.0000 C   0  0  0  0  0  0  0  0  0  0  0  0
    9.7734   -2.5395    0.0000 C   0  0  0  0  0  0  0  0  0  0  0  0
   10.6394   -2.0395    0.0000 C   0  0  0  0  0  0  0  0  0  0  0  0
    8.0413   -0.5395    0.0000 C   0  0  0  0  0  0  0  0  0  0  0  0
    9.7734    0.4605    0.0000 C   0  0  0  0  0  0  0  0  0  0  0  0
    7.1753   -1.0395    0.0000 C   0  0  0  0  0  0  0  0  0  0  0  0
   10.6394    1.9605    0.0000 C   0  0  0  0  0  0  0  0  0  0  0  0
    6.3092   -0.5395    0.0000 C   0  0  0  0  0  0  0  0  0  0  0  0
    7.1753   -2.0395    0.0000 C   0  0  0  0  0  0  0  0  0  0  0  0
   11.4484    2.5483    0.0000 C   0  0  0  0  0  0  0  0  0  0  0  0
    5.4432   -1.0395    0.0000 C   0  0  0  0  0  0  0  0  0  0  0  0
    6.3092   -2.5395    0.0000 C   0  0  0  0  0  0  0  0  0  0  0  0
    9.8304    2.5483    0.0000 C   0  0  0  0  0  0  0  0  0  0  0  0
    5.4432   -2.0395    0.0000 C   0  0  0  0  0  0  0  0  0  0  0  0
    4.5772   -2.5395    0.0000 C   0  0  0  0  0  0  0  0  0  0  0  0
   11.7272    4.3084    0.0000 C   0  0  0  0  0  0  0  0  0  0  0  0
    3.6636   -2.1328    0.0000 C   0  0  0  0  0  0  0  0  0  0  0  0
    2.9945   -2.8759    0.0000 C   0  0  0  0  0  0  0  0  0  0  0  0
    2.0000   -2.7714    0.0000 C   0  0  0  0  0  0  0  0  0  0  0  0
  1  4  2  0
  1  5  2  0
  1  9  1  0
  1 24  1  0
  2 18  2  0
  3 19  2  0
  6 19  1  0
  6 21  1  0
  7  8  1  0
  7 24  1  0
  7 30  1  0
  8 27  2  0
 10 11  1  0
 10 29  2  0
 11 32  1  0
 12 13  1  0
 12 14  1  0
 12 18  1  1
 13 15  1  0
 13 19  1  6
 14 16  1  0
 15 17  1  0
 16 17  1  0
 18 20  1  0
 20 22  2  0
 20 23  1  0
 21 24  2  0
 21 27  1  0
 22 25  1  0
 23 26  2  0
 25 28  2  0
 26 28  1  0
 28 29  1  0
 29 31  1  0
 31 32  2  0
 32 33  1  0
M  END
>  <Curated_InChIs>  (18) 
InChI=1S/C22H26N6O4S/c1-13-11-18(27-26-13)14-7-9-15(10-8-14)20(29)16-5-3-4-6-17(16)21(30)25-19-12-24-28(2)22(19)33(23,31)32/h7-12,16-17H,3-6H2,1-2H3,(H,25,30)(H,26,27)(H2,23,31,32)

>  <PUBCHEM_IUPAC_NAME>  (18) 
(1R,2R)-2-[4-(5-methyl-1H-pyrazol-3-yl)benzoyl]-N-(1-methyl-5-sulfamoylpyrazol-4-yl)cyclohexane-1-carboxamide

>  <PUBCHEM_COMPOUND_CID>  (18) 
122678192

>  <acvalue>  (18) 
2.5

>  <Classification>  (18) 
1

>  <SMILES>  (18) 
Cc1cc(-c2ccc(C(=O)[C@@H]3CCCC[C@H]3C(=O)Nc3cnn(C)c3S(N)(=O)=O)cc2)n[nH]1

>  <InChIKey>  (18) 
IVYACETTWFJKQK-IAGOWNOFSA-N

$$$$
122678117
     RDKit          2D

 33 37  0  0  1  0  0  0  0  0999 V2000
    8.1507   -0.4831    0.0000 O   0  0  0  0  0  0  0  0  0  0  0  0
    7.1722   -0.6893    0.0000 O   0  0  0  0  0  0  0  0  0  0  0  0
    3.4030    0.0935    0.0000 O   0  0  0  0  0  0  0  0  0  0  0  0
    5.5259   -0.1513    0.0000 N   0  0  0  0  0  0  0  0  0  0  0  0
    4.2690   -2.4065    0.0000 N   0  0  0  0  0  0  0  0  0  0  0  0
    5.2152   -2.7112    0.0000 N   0  0  0  0  0  0  0  0  0  0  0  0
    2.5369   -1.4065    0.0000 N   0  0  0  0  0  0  0  0  0  0  0  0
   13.1174    0.6219    0.0000 N   0  0  0  0  0  0  0  0  0  0  0  0
   13.9843    1.1204    0.0000 N   0  0  0  0  0  0  0  0  0  0  0  0
    7.7935    1.2117    0.0000 C   0  0  0  0  0  0  0  0  0  0  0  0
    6.8150    1.0055    0.0000 C   0  0  0  0  0  0  0  0  0  0  0  0
    8.1042    2.1622    0.0000 C   0  0  0  0  0  0  0  0  0  0  0  0
    6.1472    1.7498    0.0000 C   0  0  0  0  0  0  0  0  0  0  0  0
    6.4579    2.7003    0.0000 C   0  0  0  0  0  0  0  0  0  0  0  0
    7.4364    2.9065    0.0000 C   0  0  0  0  0  0  0  0  0  0  0  0
    8.4614    0.4674    0.0000 C   0  0  0  0  0  0  0  0  0  0  0  0
    6.5044    0.0550    0.0000 C   0  0  0  0  0  0  0  0  0  0  0  0
    9.4399    0.6736    0.0000 C   0  0  0  0  0  0  0  0  0  0  0  0
    5.2152   -1.1018    0.0000 C   0  0  0  0  0  0  0  0  0  0  0  0
    4.2690   -1.4065    0.0000 C   0  0  0  0  0  0  0  0  0  0  0  0
   10.1077   -0.0707    0.0000 C   0  0  0  0  0  0  0  0  0  0  0  0
    9.7506    1.6241    0.0000 C   0  0  0  0  0  0  0  0  0  0  0  0
    3.4030   -2.9065    0.0000 C   0  0  0  0  0  0  0  0  0  0  0  0
    5.7988   -1.9065    0.0000 C   0  0  0  0  0  0  0  0  0  0  0  0
    2.5369   -2.4065    0.0000 C   0  0  0  0  0  0  0  0  0  0  0  0
    3.4030   -0.9065    0.0000 C   0  0  0  0  0  0  0  0  0  0  0  0
   11.0862    0.1355    0.0000 C   0  0  0  0  0  0  0  0  0  0  0  0
   10.7291    1.8304    0.0000 C   0  0  0  0  0  0  0  0  0  0  0  0
   11.3969    1.0860    0.0000 C   0  0  0  0  0  0  0  0  0  0  0  0
   12.3754    1.2923    0.0000 C   0  0  0  0  0  0  0  0  0  0  0  0
   12.7837    2.2051    0.0000 C   0  0  0  0  0  0  0  0  0  0  0  0
   13.7781    2.0989    0.0000 C   0  0  0  0  0  0  0  0  0  0  0  0
   14.4485    2.8408    0.0000 C   0  0  0  0  0  0  0  0  0  0  0  0
  1 16  2  0
  2 17  2  0
  3 26  2  0
  4 17  1  0
  4 19  1  0
  5  6  1  0
  5 20  1  0
  5 23  1  0
  6 24  2  0
  7 25  1  0
  7 26  1  0
  8  9  1  0
  8 30  2  0
  9 32  1  0
 10 11  1  0
 10 12  1  0
 10 16  1  1
 11 13  1  0
 11 17  1  6
 12 15  1  0
 13 14  1  0
 14 15  1  0
 16 18  1  0
 18 21  2  0
 18 22  1  0
 19 20  2  0
 19 24  1  0
 20 26  1  0
 21 27  1  0
 22 28  2  0
 23 25  1  0
 27 29  2  0
 28 29  1  0
 29 30  1  0
 30 31  1  0
 31 32  2  0
 32 33  1  0
M  END
>  <Curated_InChIs>  (19) 
InChI=1S/C24H26N6O3/c1-14-12-19(29-28-14)15-6-8-16(9-7-15)22(31)17-4-2-3-5-18(17)23(32)27-20-13-26-30-11-10-25-24(33)21(20)30/h6-9,12-13,17-18H,2-5,10-11H2,1H3,(H,25,33)(H,27,32)(H,28,29)

>  <PUBCHEM_IUPAC_NAME>  (19) 
(1R,2R)-2-[4-(5-methyl-1H-pyrazol-3-yl)benzoyl]-N-(4-oxo-6,7-dihydro-5H-pyrazolo[1,5-a]pyrazin-3-yl)cyclohexane-1-carboxamide

>  <PUBCHEM_COMPOUND_CID>  (19) 
122678117

>  <acvalue>  (19) 
2.3

>  <Classification>  (19) 
1

>  <SMILES>  (19) 
Cc1cc(-c2ccc(C(=O)[C@@H]3CCCC[C@H]3C(=O)Nc3cnn4c3C(=O)NCC4)cc2)n[nH]1

>  <InChIKey>  (19) 
ROTWSDMXHVGAHZ-QZTJIDSGSA-N

$$$$
155559364
     RDKit          2D

 37 40  0  0  1  0  0  0  0  0999 V2000
    8.0413    0.4605    0.0000 O   0  0  0  0  0  0  0  0  0  0  0  0
    8.9073    0.9605    0.0000 O   0  0  0  0  0  0  0  0  0  0  0  0
   14.0937    2.5994    0.0000 O   0  0  0  0  0  0  0  0  0  0  0  0
   12.6074    1.2611    0.0000 O   0  0  0  0  0  0  0  0  0  0  0  0
   10.6394    0.9605    0.0000 N   0  0  0  0  0  0  0  0  0  0  0  0
   11.1394    3.4993    0.0000 N   0  0  0  0  0  0  0  0  0  0  0  0
   10.1394    3.4993    0.0000 N   0  0  0  0  0  0  0  0  0  0  0  0
   13.1426    2.9084    0.0000 N   0  0  0  0  0  0  0  0  0  0  0  0
    4.4727   -3.5340    0.0000 N   0  0  0  0  0  0  0  0  0  0  0  0
    3.4945   -3.7420    0.0000 N   0  0  0  0  0  0  0  0  0  0  0  0
    8.9073   -1.0395    0.0000 C   0  0  0  0  0  0  0  0  0  0  0  0
    9.7734   -0.5395    0.0000 C   0  0  0  0  0  0  0  0  0  0  0  0
    8.9073   -2.0395    0.0000 C   0  0  0  0  0  0  0  0  0  0  0  0
   10.6394   -1.0395    0.0000 C   0  0  0  0  0  0  0  0  0  0  0  0
    9.7734   -2.5395    0.0000 C   0  0  0  0  0  0  0  0  0  0  0  0
   10.6394   -2.0395    0.0000 C   0  0  0  0  0  0  0  0  0  0  0  0
    8.0413   -0.5395    0.0000 C   0  0  0  0  0  0  0  0  0  0  0  0
    9.7734    0.4605    0.0000 C   0  0  0  0  0  0  0  0  0  0  0  0
    7.1753   -1.0395    0.0000 C   0  0  0  0  0  0  0  0  0  0  0  0
   10.6394    1.9605    0.0000 C   0  0  0  0  0  0  0  0  0  0  0  0
    7.1753   -2.0395    0.0000 C   0  0  0  0  0  0  0  0  0  0  0  0
    6.3092   -0.5395    0.0000 C   0  0  0  0  0  0  0  0  0  0  0  0
   11.4484    2.5483    0.0000 C   0  0  0  0  0  0  0  0  0  0  0  0
    6.3092   -2.5395    0.0000 C   0  0  0  0  0  0  0  0  0  0  0  0
    5.4432   -1.0395    0.0000 C   0  0  0  0  0  0  0  0  0  0  0  0
    5.4432   -2.0395    0.0000 C   0  0  0  0  0  0  0  0  0  0  0  0
    9.8304    2.5483    0.0000 C   0  0  0  0  0  0  0  0  0  0  0  0
   12.3994    2.2393    0.0000 C   0  0  0  0  0  0  0  0  0  0  0  0
    4.5772   -2.5395    0.0000 C   0  0  0  0  0  0  0  0  0  0  0  0
   11.7272    4.3084    0.0000 C   0  0  0  0  0  0  0  0  0  0  0  0
   14.8368    3.2685    0.0000 C   0  0  0  0  0  0  0  0  0  0  0  0
    3.6636   -2.1328    0.0000 C   0  0  0  0  0  0  0  0  0  0  0  0
    2.9945   -2.8759    0.0000 C   0  0  0  0  0  0  0  0  0  0  0  0
   15.5799    3.9376    0.0000 C   0  0  0  0  0  0  0  0  0  0  0  0
   15.5059    2.5254    0.0000 C   0  0  0  0  0  0  0  0  0  0  0  0
   14.1677    4.0116    0.0000 C   0  0  0  0  0  0  0  0  0  0  0  0
    2.0000   -2.7714    0.0000 C   0  0  0  0  0  0  0  0  0  0  0  0
  1 17  2  0
  2 18  2  0
  3  8  1  0
  3 31  1  0
  4 28  2  0
  5 18  1  0
  5 20  1  0
  6  7  1  0
  6 23  1  0
  6 30  1  0
  7 27  2  0
  8 28  1  0
  9 10  1  0
  9 29  2  0
 10 33  1  0
 11 12  1  0
 11 13  1  0
 11 17  1  1
 12 14  1  0
 12 18  1  6
 13 15  1  0
 14 16  1  0
 15 16  1  0
 17 19  1  0
 19 21  2  0
 19 22  1  0
 20 23  2  0
 20 27  1  0
 21 24  1  0
 22 25  2  0
 23 28  1  0
 24 26  2  0
 25 26  1  0
 26 29  1  0
 29 32  1  0
 31 34  1  0
 31 35  1  0
 31 36  1  0
 32 33  2  0
 33 37  1  0
M  END
>  <Curated_InChIs>  (20) 
InChI=1S/C27H34N6O4/c1-16-14-21(31-30-16)17-10-12-18(13-11-17)24(34)19-8-6-7-9-20(19)25(35)29-22-15-28-33(5)23(22)26(36)32-37-27(2,3)4/h10-15,19-20H,6-9H2,1-5H3,(H,29,35)(H,30,31)(H,32,36)

>  <PUBCHEM_IUPAC_NAME>  (20) 
2-methyl-N-[(2-methylpropan-2-yl)oxy]-4-[[(1R,2R)-2-[4-(5-methyl-1H-pyrazol-3-yl)benzoyl]cyclohexanecarbonyl]amino]pyrazole-3-carboxamide

>  <PUBCHEM_COMPOUND_CID>  (20) 
155559364

>  <acvalue>  (20) 
1.4

>  <Classification>  (20) 
1

>  <SMILES>  (20) 
Cc1cc(-c2ccc(C(=O)[C@@H]3CCCC[C@H]3C(=O)Nc3cnn(C)c3C(=O)NOC(C)(C)C)cc2)n[nH]1

>  <InChIKey>  (20) 
BMQWIMXUMVEYAP-WOJBJXKFSA-N

$$$$
121596332
     RDKit          2D

 27 29  0  0  0  0  0  0  0  0999 V2000
    3.4030    0.5950    0.0000 O   0  0  0  0  0  0  0  0  0  0  0  0
    7.7331    5.0950    0.0000 O   0  0  0  0  0  0  0  0  0  0  0  0
    8.5991    3.5950    0.0000 O   0  0  0  0  0  0  0  0  0  0  0  0
    2.5369   -0.9050    0.0000 N   0  0  0  0  0  0  0  0  0  0  0  0
    5.1350   -0.4050    0.0000 C   0  0  0  0  0  0  0  0  0  0  0  0
    5.1350    0.5950    0.0000 C   0  0  0  0  0  0  0  0  0  0  0  0
    6.0010   -1.9050    0.0000 C   0  0  0  0  0  0  0  0  0  0  0  0
    6.0010   -0.9050    0.0000 C   0  0  0  0  0  0  0  0  0  0  0  0
    6.8671   -2.4050    0.0000 C   0  0  0  0  0  0  0  0  0  0  0  0
    6.0010    2.0950    0.0000 C   0  0  0  0  0  0  0  0  0  0  0  0
    4.2690   -0.9050    0.0000 C   0  0  0  0  0  0  0  0  0  0  0  0
    6.0010    1.0950    0.0000 C   0  0  0  0  0  0  0  0  0  0  0  0
    6.8671    2.5950    0.0000 C   0  0  0  0  0  0  0  0  0  0  0  0
    5.1350   -2.4050    0.0000 C   0  0  0  0  0  0  0  0  0  0  0  0
    4.2690   -1.9050    0.0000 C   0  0  0  0  0  0  0  0  0  0  0  0
    4.2690    1.0950    0.0000 C   0  0  0  0  0  0  0  0  0  0  0  0
    6.8671   -3.4050    0.0000 C   0  0  0  0  0  0  0  0  0  0  0  0
    5.1350    2.5950    0.0000 C   0  0  0  0  0  0  0  0  0  0  0  0
    6.8671    3.5950    0.0000 C   0  0  0  0  0  0  0  0  0  0  0  0
    4.2690    2.0950    0.0000 C   0  0  0  0  0  0  0  0  0  0  0  0
    3.4030   -0.4050    0.0000 C   0  0  0  0  0  0  0  0  0  0  0  0
    7.7331   -3.9050    0.0000 C   0  0  0  0  0  0  0  0  0  0  0  0
    6.0010   -3.9050    0.0000 C   0  0  0  0  0  0  0  0  0  0  0  0
    7.7331   -4.9050    0.0000 C   0  0  0  0  0  0  0  0  0  0  0  0
    6.0010   -4.9050    0.0000 C   0  0  0  0  0  0  0  0  0  0  0  0
    7.7331    4.0950    0.0000 C   0  0  0  0  0  0  0  0  0  0  0  0
    6.8671   -5.4050    0.0000 C   0  0  0  0  0  0  0  0  0  0  0  0
  1 21  2  0
  2 26  1  0
  3 26  2  0
  4 21  1  0
  5  6  1  0
  5  8  2  0
  5 11  1  0
  6 12  1  0
  6 16  2  0
  7  8  1  0
  7  9  1  0
  7 14  2  0
  9 17  1  0
 10 12  2  0
 10 13  1  0
 10 18  1  0
 11 15  2  0
 11 21  1  0
 13 19  1  0
 14 15  1  0
 16 20  1  0
 17 22  2  0
 17 23  1  0
 18 20  2  0
 19 26  1  0
 22 24  1  0
 23 25  2  0
 24 27  2  0
 25 27  1  0
M  END
>  <Curated_InChIs>  (21) 
InChI=1S/C23H21NO3/c24-23(27)20-11-9-18(13-16-5-2-1-3-6-16)15-21(20)19-8-4-7-17(14-19)10-12-22(25)26/h1-9,11,14-15H,10,12-13H2,(H2,24,27)(H,25,26)

>  <PUBCHEM_IUPAC_NAME>  (21) 
3-[3-(5-benzyl-2-carbamoylphenyl)phenyl]propanoic acid

>  <PUBCHEM_COMPOUND_CID>  (21) 
121596332

>  <acvalue>  (21) 
2.0

>  <Classification>  (21) 
1

>  <SMILES>  (21) 
NC(=O)c1ccc(Cc2ccccc2)cc1-c1cccc(CCC(=O)O)c1

>  <InChIKey>  (21) 
UHEGDWIZAOPGIY-UHFFFAOYSA-N

$$$$
