1464
     RDKit          2D

 34 39  0  0  0  0  0  0  0  0999 V2000
   14.7028   -2.7640    0.0000 O   0  0  0  0  0  0  0  0  0  0  0  0
    3.5000    1.1660    0.0000 N   0  0  0  0  0  0  0  0  0  0  0  0
    2.5000    2.8980    0.0000 N   0  0  0  0  0  0  0  0  0  0  0  0
    6.4718   -0.7753    0.0000 N   0  0  0  0  0  0  0  0  0  0  0  0
    5.6671   -2.1691    0.0000 N   0  0  0  0  0  0  0  0  0  0  0  0
   10.1192   -1.9593    0.0000 N   0  0  0  0  0  0  0  0  0  0  0  0
   10.1192   -3.5688    0.0000 N   0  0  0  0  0  0  0  0  0  0  0  0
    4.0000    2.0320    0.0000 C   0  0  0  0  0  0  0  0  0  0  0  0
    2.5000    1.1660    0.0000 C   0  0  0  0  0  0  0  0  0  0  0  0
    3.5000    2.8980    0.0000 C   0  0  0  0  0  0  0  0  0  0  0  0
    2.0000    2.0320    0.0000 C   0  0  0  0  0  0  0  0  0  0  0  0
    4.0000    0.2999    0.0000 C   0  0  0  0  0  0  0  0  0  0  0  0
    2.0000    3.7640    0.0000 C   0  0  0  0  0  0  0  0  0  0  0  0
    5.0000    0.2999    0.0000 C   0  0  0  0  0  0  0  0  0  0  0  0
    5.5000   -0.5661    0.0000 C   0  0  0  0  0  0  0  0  0  0  0  0
    3.5000   -0.5661    0.0000 C   0  0  0  0  0  0  0  0  0  0  0  0
    5.0000   -1.4321    0.0000 C   0  0  0  0  0  0  0  0  0  0  0  0
    4.0000   -1.4321    0.0000 C   0  0  0  0  0  0  0  0  0  0  0  0
    6.5749   -1.7640    0.0000 C   0  0  0  0  0  0  0  0  0  0  0  0
    7.4409   -2.2640    0.0000 C   0  0  0  0  0  0  0  0  0  0  0  0
    9.1730   -2.2640    0.0000 C   0  0  0  0  0  0  0  0  0  0  0  0
    8.3069   -1.7640    0.0000 C   0  0  0  0  0  0  0  0  0  0  0  0
    9.1730   -3.2640    0.0000 C   0  0  0  0  0  0  0  0  0  0  0  0
    7.4409   -3.2640    0.0000 C   0  0  0  0  0  0  0  0  0  0  0  0
    8.3069   -3.7640    0.0000 C   0  0  0  0  0  0  0  0  0  0  0  0
   10.7028   -2.7640    0.0000 C   0  0  0  0  0  0  0  0  0  0  0  0
   11.7028   -2.7640    0.0000 C   0  0  0  0  0  0  0  0  0  0  0  0
   12.2028   -1.8980    0.0000 C   0  0  0  0  0  0  0  0  0  0  0  0
   12.2028   -3.6300    0.0000 C   0  0  0  0  0  0  0  0  0  0  0  0
   13.2028   -1.8980    0.0000 C   0  0  0  0  0  0  0  0  0  0  0  0
   13.2028   -3.6300    0.0000 C   0  0  0  0  0  0  0  0  0  0  0  0
   13.7028   -2.7640    0.0000 C   0  0  0  0  0  0  0  0  0  0  0  0
   15.2028   -3.6300    0.0000 C   0  0  0  0  0  0  0  0  0  0  0  0
   16.2028   -3.6300    0.0000 C   0  0  0  0  0  0  0  0  0  0  0  0
  1 32  1  0
  1 33  1  0
  2  8  1  0
  2  9  1  0
  2 12  1  0
  3 10  1  0
  3 11  1  0
  3 13  1  0
  4 15  1  0
  4 19  1  0
  5 17  1  0
  5 19  2  0
  6 21  1  0
  6 26  1  0
  7 23  1  0
  7 26  2  0
  8 10  1  0
  9 11  1  0
 12 14  1  0
 12 16  2  0
 14 15  2  0
 15 17  1  0
 16 18  1  0
 17 18  2  0
 19 20  1  0
 20 22  1  0
 20 24  2  0
 21 22  2  0
 21 23  1  0
 23 25  2  0
 24 25  1  0
 26 27  1  0
 27 28  2  0
 27 29  1  0
 28 30  1  0
 29 31  2  0
 30 32  2  0
 31 32  1  0
 33 34  1  0
M  END
>  <Curated_InChIs>  (1) 
InChI=1S/C27H28N6O/c1-3-34-21-8-4-18(5-9-21)26-28-22-10-6-19(16-24(22)30-26)27-29-23-11-7-20(17-25(23)31-27)33-14-12-32(2)13-15-33/h4-11,16-17H,3,12-15H2,1-2H3,(H,28,30)(H,29,31)

>  <PUBCHEM_IUPAC_NAME>  (1) 
2-(4-ethoxyphenyl)-6-[6-(4-methylpiperazin-1-yl)-1H-benzimidazol-2-yl]-1H-benzimidazole

>  <PUBCHEM_COMPOUND_CID>  (1) 
1464

>  <acvalue>  (1) 
18.0

>  <Classification>  (1) 
0

>  <SMILES>  (1) 
CCOc1ccc(-c2nc3ccc(-c4nc5ccc(N6CCN(C)CC6)cc5[nH]4)cc3[nH]2)cc1

>  <InChIKey>  (1) 
PRDFBSVERLRRMY-UHFFFAOYSA-N

$$$$
5280961
     RDKit          2D

 20 22  0  0  0  0  0  0  0  0999 V2000
    5.5301   -1.4279    0.0000 O   0  0  0  0  0  0  0  0  0  0  0  0
    3.7817    1.6067    0.0000 O   0  0  0  0  0  0  0  0  0  0  0  0
    5.5301    1.5721    0.0000 O   0  0  0  0  0  0  0  0  0  0  0  0
    2.0000   -1.4521    0.0000 O   0  0  0  0  0  0  0  0  0  0  0  0
    9.8602    2.0721    0.0000 O   0  0  0  0  0  0  0  0  0  0  0  0
    4.6641    0.0721    0.0000 C   0  0  0  0  0  0  0  0  0  0  0  0
    6.3961    0.0721    0.0000 C   0  0  0  0  0  0  0  0  0  0  0  0
    4.6641   -0.9279    0.0000 C   0  0  0  0  0  0  0  0  0  0  0  0
    5.5301    0.5721    0.0000 C   0  0  0  0  0  0  0  0  0  0  0  0
    7.2622    0.5721    0.0000 C   0  0  0  0  0  0  0  0  0  0  0  0
    3.7702    0.6067    0.0000 C   0  0  0  0  0  0  0  0  0  0  0  0
    6.3961   -0.9279    0.0000 C   0  0  0  0  0  0  0  0  0  0  0  0
    3.7702   -1.4626    0.0000 C   0  0  0  0  0  0  0  0  0  0  0  0
    2.8641    0.0929    0.0000 C   0  0  0  0  0  0  0  0  0  0  0  0
    2.8641   -0.9487    0.0000 C   0  0  0  0  0  0  0  0  0  0  0  0
    8.1282    0.0721    0.0000 C   0  0  0  0  0  0  0  0  0  0  0  0
    7.2622    1.5721    0.0000 C   0  0  0  0  0  0  0  0  0  0  0  0
    8.9942    0.5721    0.0000 C   0  0  0  0  0  0  0  0  0  0  0  0
    8.1282    2.0721    0.0000 C   0  0  0  0  0  0  0  0  0  0  0  0
    8.9942    1.5721    0.0000 C   0  0  0  0  0  0  0  0  0  0  0  0
  1  8  1  0
  1 12  1  0
  2 11  1  0
  3  9  2  0
  4 15  1  0
  5 20  1  0
  6  8  2  0
  6  9  1  0
  6 11  1  0
  7  9  1  0
  7 10  1  0
  7 12  2  0
  8 13  1  0
 10 16  2  0
 10 17  1  0
 11 14  2  0
 13 15  2  0
 14 15  1  0
 16 18  1  0
 17 19  2  0
 18 20  2  0
 19 20  1  0
M  END
>  <Curated_InChIs>  (2) 
InChI=1S/C15H10O5/c16-9-3-1-8(2-4-9)11-7-20-13-6-10(17)5-12(18)14(13)15(11)19/h1-7,16-18H

>  <PUBCHEM_IUPAC_NAME>  (2) 
5,7-dihydroxy-3-(4-hydroxyphenyl)chromen-4-one

>  <PUBCHEM_COMPOUND_CID>  (2) 
5280961

>  <acvalue>  (2) 
3.89045

>  <Classification>  (2) 
1

>  <SMILES>  (2) 
O=c1c(-c2ccc(O)cc2)coc2cc(O)cc(O)c12

>  <InChIKey>  (2) 
TZBJGXHYKVUXJN-UHFFFAOYSA-N

$$$$
3463
     RDKit          2D

 18 18  0  0  0  0  0  0  0  0999 V2000
    3.7320   -1.0600    0.0000 O   0  0  0  0  0  0  0  0  0  0  0  0
    6.3301    3.4400    0.0000 O   0  0  0  0  0  0  0  0  0  0  0  0
    4.5981    3.4400    0.0000 O   0  0  0  0  0  0  0  0  0  0  0  0
    5.4641    1.9400    0.0000 C   0  0  0  0  0  0  0  0  0  0  0  0
    5.4641    0.9400    0.0000 C   0  0  0  0  0  0  0  0  0  0  0  0
    4.5981    0.4400    0.0000 C   0  0  0  0  0  0  0  0  0  0  0  0
    6.4641    1.9400    0.0000 C   0  0  0  0  0  0  0  0  0  0  0  0
    4.4641    1.9400    0.0000 C   0  0  0  0  0  0  0  0  0  0  0  0
    4.5981   -0.5600    0.0000 C   0  0  0  0  0  0  0  0  0  0  0  0
    5.4641    2.9400    0.0000 C   0  0  0  0  0  0  0  0  0  0  0  0
    3.7320   -2.0600    0.0000 C   0  0  0  0  0  0  0  0  0  0  0  0
    2.8660   -2.5600    0.0000 C   0  0  0  0  0  0  0  0  0  0  0  0
    4.5981   -2.5600    0.0000 C   0  0  0  0  0  0  0  0  0  0  0  0
    4.5981   -3.5600    0.0000 C   0  0  0  0  0  0  0  0  0  0  0  0
    2.8660   -3.5600    0.0000 C   0  0  0  0  0  0  0  0  0  0  0  0
    3.7320   -4.0600    0.0000 C   0  0  0  0  0  0  0  0  0  0  0  0
    2.0000   -2.0600    0.0000 C   0  0  0  0  0  0  0  0  0  0  0  0
    5.4641   -4.0600    0.0000 C   0  0  0  0  0  0  0  0  0  0  0  0
  1  9  1  0
  1 11  1  0
  2 10  1  0
  3 10  2  0
  4  5  1  0
  4  7  1  0
  4  8  1  0
  4 10  1  0
  5  6  1  0
  6  9  1  0
 11 12  2  0
 11 13  1  0
 12 15  1  0
 12 17  1  0
 13 14  2  0
 14 16  1  0
 14 18  1  0
 15 16  2  0
M  END
>  <Curated_InChIs>  (3) 
InChI=1S/C15H22O3/c1-11-6-7-12(2)13(10-11)18-9-5-8-15(3,4)14(16)17/h6-7,10H,5,8-9H2,1-4H3,(H,16,17)

>  <PUBCHEM_IUPAC_NAME>  (3) 
5-(2,5-dimethylphenoxy)-2,2-dimethylpentanoic acid

>  <PUBCHEM_COMPOUND_CID>  (3) 
3463

>  <acvalue>  (3) 
7.07946

>  <Classification>  (3) 
1

>  <SMILES>  (3) 
Cc1ccc(C)c(OCCCC(C)(C)C(=O)O)c1

>  <InChIKey>  (3) 
HEMJJKBWTPKOJG-UHFFFAOYSA-N

$$$$
60822
     RDKit          2D

 83 88  0  0  1  0  0  0  0  0999 V2000
   13.9817   -1.1867    0.0000 Ca  0  0  0  0  0 15  0  0  0  0  0  0
   22.5185   -6.9059    0.0000 F   0  0  0  0  0  0  0  0  0  0  0  0
    3.8566   -2.9392    0.0000 F   0  0  0  0  0  0  0  0  0  0  0  0
   18.8564   -3.2452    0.0000 O   0  0  0  0  0  0  0  0  0  0  0  0
    8.6912   -1.0845    0.0000 O   0  0  0  0  0  0  0  0  0  0  0  0
   17.1622   -2.8850    0.0000 O   0  0  0  0  0  0  0  0  0  0  0  0
   10.3853   -1.4446    0.0000 O   0  0  0  0  0  0  0  0  0  0  0  0
   24.6008   -0.6626    0.0000 O   0  0  0  0  0  0  0  0  0  0  0  0
    4.4937    3.6113    0.0000 O   0  0  0  0  0  0  0  0  0  0  0  0
   14.9327   -0.8777    0.0000 O   0  0  0  0  0  0  0  0  0  0  0  0
   15.4680   -2.5249    0.0000 O   0  0  0  0  0  0  0  0  0  0  0  0
   13.2385   -0.5175    0.0000 O   0  0  0  0  0  0  0  0  0  0  0  0
   12.0796   -1.8047    0.0000 O   0  0  0  0  0  0  0  0  0  0  0  0
   21.7095   -2.3181    0.0000 N   0  0  0  0  0  0  0  0  0  0  0  0
    6.4617    0.9229    0.0000 N   0  0  0  0  0  0  0  0  0  0  0  0
   23.1996    0.3555    0.0000 N   0  0  0  0  0  0  0  0  0  0  0  0
    6.1879    3.9714    0.0000 N   0  0  0  0  0  0  0  0  0  0  0  0
   22.0185   -1.3671    0.0000 C   0  0  0  0  0  0  0  0  0  0  0  0
    6.5662    1.9174    0.0000 C   0  0  0  0  0  0  0  0  0  0  0  0
   20.7585   -2.6271    0.0000 C   0  0  0  0  0  0  0  0  0  0  0  0
    7.2049    0.2538    0.0000 C   0  0  0  0  0  0  0  0  0  0  0  0
   22.5185   -2.9059    0.0000 C   0  0  0  0  0  0  0  0  0  0  0  0
    5.4836    0.7150    0.0000 C   0  0  0  0  0  0  0  0  0  0  0  0
   21.4308   -0.5580    0.0000 C   0  0  0  0  0  0  0  0  0  0  0  0
    7.4323    2.4174    0.0000 C   0  0  0  0  0  0  0  0  0  0  0  0
   23.0185   -1.3671    0.0000 C   0  0  0  0  0  0  0  0  0  0  0  0
    5.6527    2.3242    0.0000 C   0  0  0  0  0  0  0  0  0  0  0  0
   20.0153   -1.9580    0.0000 C   0  0  0  0  0  0  0  0  0  0  0  0
    8.1559    0.5628    0.0000 C   0  0  0  0  0  0  0  0  0  0  0  0
   23.3276   -2.3181    0.0000 C   0  0  0  0  0  0  0  0  0  0  0  0
    4.9836    1.5810    0.0000 C   0  0  0  0  0  0  0  0  0  0  0  0
   19.0643   -2.2670    0.0000 C   0  0  0  0  0  0  0  0  0  0  0  0
    8.8991   -0.1063    0.0000 C   0  0  0  0  0  0  0  0  0  0  0  0
   18.3211   -1.5979    0.0000 C   0  0  0  0  0  0  0  0  0  0  0  0
    9.8501    0.2027    0.0000 C   0  0  0  0  0  0  0  0  0  0  0  0
   22.5185   -3.9059    0.0000 C   0  0  0  0  0  0  0  0  0  0  0  0
    5.0768   -0.1985    0.0000 C   0  0  0  0  0  0  0  0  0  0  0  0
   20.4362   -0.6626    0.0000 C   0  0  0  0  0  0  0  0  0  0  0  0
   21.8375    0.3555    0.0000 C   0  0  0  0  0  0  0  0  0  0  0  0
    7.4323    3.4174    0.0000 C   0  0  0  0  0  0  0  0  0  0  0  0
    8.2983    1.9174    0.0000 C   0  0  0  0  0  0  0  0  0  0  0  0
   24.2786   -2.6271    0.0000 C   0  0  0  0  0  0  0  0  0  0  0  0
    3.9890    1.6856    0.0000 C   0  0  0  0  0  0  0  0  0  0  0  0
   17.3701   -1.9069    0.0000 C   0  0  0  0  0  0  0  0  0  0  0  0
   10.5933   -0.4664    0.0000 C   0  0  0  0  0  0  0  0  0  0  0  0
   23.6063   -0.5580    0.0000 C   0  0  0  0  0  0  0  0  0  0  0  0
    5.4448    3.3023    0.0000 C   0  0  0  0  0  0  0  0  0  0  0  0
   21.6525   -4.4059    0.0000 C   0  0  0  0  0  0  0  0  0  0  0  0
   23.3846   -4.4059    0.0000 C   0  0  0  0  0  0  0  0  0  0  0  0
    5.6646   -1.0076    0.0000 C   0  0  0  0  0  0  0  0  0  0  0  0
    4.0823   -0.3031    0.0000 C   0  0  0  0  0  0  0  0  0  0  0  0
   16.6269   -1.2378    0.0000 C   0  0  0  0  0  0  0  0  0  0  0  0
   11.5443   -0.1574    0.0000 C   0  0  0  0  0  0  0  0  0  0  0  0
   25.0218   -1.9580    0.0000 C   0  0  0  0  0  0  0  0  0  0  0  0
   24.4865   -3.6053    0.0000 C   0  0  0  0  0  0  0  0  0  0  0  0
    3.5823    2.5991    0.0000 C   0  0  0  0  0  0  0  0  0  0  0  0
    3.4013    0.8765    0.0000 C   0  0  0  0  0  0  0  0  0  0  0  0
   21.6525   -5.4059    0.0000 C   0  0  0  0  0  0  0  0  0  0  0  0
   23.3846   -5.4059    0.0000 C   0  0  0  0  0  0  0  0  0  0  0  0
    5.2579   -1.9211    0.0000 C   0  0  0  0  0  0  0  0  0  0  0  0
    3.6756   -1.2166    0.0000 C   0  0  0  0  0  0  0  0  0  0  0  0
   25.9728   -2.2670    0.0000 C   0  0  0  0  0  0  0  0  0  0  0  0
   25.4376   -3.9143    0.0000 C   0  0  0  0  0  0  0  0  0  0  0  0
    2.5878    2.7036    0.0000 C   0  0  0  0  0  0  0  0  0  0  0  0
    2.4067    0.9811    0.0000 C   0  0  0  0  0  0  0  0  0  0  0  0
   22.5185   -5.9059    0.0000 C   0  0  0  0  0  0  0  0  0  0  0  0
    4.2634   -2.0256    0.0000 C   0  0  0  0  0  0  0  0  0  0  0  0
   23.7874    1.1645    0.0000 C   0  0  0  0  0  0  0  0  0  0  0  0
    5.9800    4.9496    0.0000 C   0  0  0  0  0  0  0  0  0  0  0  0
   26.1807   -3.2452    0.0000 C   0  0  0  0  0  0  0  0  0  0  0  0
    2.0000    1.8946    0.0000 C   0  0  0  0  0  0  0  0  0  0  0  0
   15.6759   -1.5468    0.0000 C   0  0  0  0  0  0  0  0  0  0  0  0
   12.2875   -0.8266    0.0000 C   0  0  0  0  0  0  0  0  0  0  0  0
   24.7819    1.0600    0.0000 C   0  0  0  0  0  0  0  0  0  0  0  0
   23.3806    2.0781    0.0000 C   0  0  0  0  0  0  0  0  0  0  0  0
    6.7232    5.6187    0.0000 C   0  0  0  0  0  0  0  0  0  0  0  0
    5.0290    5.2586    0.0000 C   0  0  0  0  0  0  0  0  0  0  0  0
   25.3697    1.8690    0.0000 C   0  0  0  0  0  0  0  0  0  0  0  0
   23.9684    2.8871    0.0000 C   0  0  0  0  0  0  0  0  0  0  0  0
    6.5152    6.5969    0.0000 C   0  0  0  0  0  0  0  0  0  0  0  0
    4.8210    6.2368    0.0000 C   0  0  0  0  0  0  0  0  0  0  0  0
   24.9629    2.7826    0.0000 C   0  0  0  0  0  0  0  0  0  0  0  0
    5.5642    6.9059    0.0000 C   0  0  0  0  0  0  0  0  0  0  0  0
  2 66  1  0
  3 67  1  0
 32  4  1  1
 33  5  1  6
 44  6  1  1
 45  7  1  6
  8 46  2  0
  9 47  2  0
 10 72  1  0
 11 72  2  0
 12 73  1  0
 13 73  2  0
 14 18  1  0
 14 20  1  0
 14 22  1  0
 15 19  1  0
 15 21  1  0
 15 23  1  0
 16 46  1  0
 16 68  1  0
 17 47  1  0
 17 69  1  0
 18 24  1  0
 18 26  2  0
 19 25  1  0
 19 27  2  0
 20 28  1  0
 21 29  1  0
 22 30  2  0
 22 36  1  0
 23 31  2  0
 23 37  1  0
 24 38  1  0
 24 39  1  0
 25 40  1  0
 25 41  1  0
 26 30  1  0
 26 46  1  0
 27 31  1  0
 27 47  1  0
 28 32  1  0
 29 33  1  0
 30 42  1  0
 31 43  1  0
 32 34  1  0
 33 35  1  0
 34 44  1  0
 35 45  1  0
 36 48  2  0
 36 49  1  0
 37 50  2  0
 37 51  1  0
 42 54  2  0
 42 55  1  0
 43 56  2  0
 43 57  1  0
 44 52  1  0
 45 53  1  0
 48 58  1  0
 49 59  2  0
 50 60  1  0
 51 61  2  0
 52 72  1  0
 53 73  1  0
 54 62  1  0
 55 63  2  0
 56 64  1  0
 57 65  2  0
 58 66  2  0
 59 66  1  0
 60 67  2  0
 61 67  1  0
 62 70  2  0
 63 70  1  0
 64 71  2  0
 65 71  1  0
 68 74  2  0
 68 75  1  0
 69 76  2  0
 69 77  1  0
 74 78  1  0
 75 79  2  0
 76 80  1  0
 77 81  2  0
 78 82  2  0
 79 82  1  0
 80 83  2  0
 81 83  1  0
M  CHG  3   1   2  10  -1  12  -1
M  END
>  <Curated_InChIs>  (4) 
InChI=1S/2C33H35FN2O5.Ca/c2*1-21(2)31-30(33(41)35-25-11-7-4-8-12-25)29(22-9-5-3-6-10-22)32(23-13-15-24(34)16-14-23)36(31)18-17-26(37)19-27(38)20-28(39)40;/h2*3-16,21,26-27,37-38H,17-20H2,1-2H3,(H,35,41)(H,39,40);

>  <PUBCHEM_IUPAC_NAME>  (4) 
calcium;(3R,5R)-7-[2-(4-fluorophenyl)-3-phenyl-4-(phenylcarbamoyl)-5-propan-2-ylpyrrol-1-yl]-3,5-dihydroxyheptanoate

>  <PUBCHEM_COMPOUND_CID>  (4) 
60822

>  <acvalue>  (4) 
3.38844

>  <Classification>  (4) 
1

>  <SMILES>  (4) 
CC(C)c1c(C(=O)Nc2ccccc2)c(-c2ccccc2)c(-c2ccc(F)cc2)n1CC[C@@H](O)C[C@@H](O)CC(=O)[O-].CC(C)c1c(C(=O)Nc2ccccc2)c(-c2ccccc2)c(-c2ccc(F)cc2)n1CC[C@@H](O)C[C@@H](O)CC(=O)[O-].[Ca+2]

>  <InChIKey>  (4) 
FQCKMBLVYCEXJB-MNSAWQCASA-L

$$$$
44575959
     RDKit          2D

 78 85  0  0  1  0  0  0  0  0999 V2000
    5.0578    4.2172    0.0000 O   0  0  0  0  0  0  0  0  0  0  0  0
    5.9577    5.8195    0.0000 O   0  0  0  0  0  0  0  0  0  0  0  0
    7.7331   -3.5350    0.0000 O   0  0  0  0  0  0  0  0  0  0  0  0
    7.7732    6.8584    0.0000 O   0  0  0  0  0  0  0  0  0  0  0  0
    5.3338    5.5180    0.0000 O   0  0  0  0  0  0  0  0  0  0  0  0
    5.0636   -1.9755    0.0000 O   0  0  0  0  0  0  0  0  0  0  0  0
    6.0010   -3.5350    0.0000 O   0  0  0  0  0  0  0  0  0  0  0  0
    7.7331   -5.5350    0.0000 O   0  0  0  0  0  0  0  0  0  0  0  0
    6.8237    7.3196    0.0000 O   0  0  0  0  0  0  0  0  0  0  0  0
    9.5052    6.8450    0.0000 O   0  0  0  0  0  0  0  0  0  0  0  0
    6.0010   -6.5350    0.0000 O   0  0  0  0  0  0  0  0  0  0  0  0
    4.2690   -5.5350    0.0000 O   0  0  0  0  0  0  0  0  0  0  0  0
    8.5991   -4.0350    0.0000 O   0  0  0  0  0  0  0  0  0  0  0  0
    4.2690   -2.5349    0.0000 O   0  0  0  0  0  0  0  0  0  0  0  0
    3.4030   -4.0350    0.0000 O   0  0  0  0  0  0  0  0  0  0  0  0
    5.1350   -7.0350    0.0000 O   0  0  0  0  0  0  0  0  0  0  0  0
    9.4651   -6.5350    0.0000 O   0  0  0  0  0  0  0  0  0  0  0  0
   11.1972   -5.5350    0.0000 O   0  0  0  0  0  0  0  0  0  0  0  0
   11.1972   -3.5350    0.0000 O   0  0  0  0  0  0  0  0  0  0  0  0
    2.5369   -6.5350    0.0000 O   0  0  0  0  0  0  0  0  0  0  0  0
    2.5369   -8.5350    0.0000 O   0  0  0  0  0  0  0  0  0  0  0  0
   10.3312   -2.0349    0.0000 O   0  0  0  0  0  0  0  0  0  0  0  0
    4.2690   -9.5350    0.0000 O   0  0  0  0  0  0  0  0  0  0  0  0
    6.8671   -8.0350    0.0000 O   0  0  0  0  0  0  0  0  0  0  0  0
    6.8320    1.1653    0.0000 C   0  0  0  0  0  0  0  0  0  0  0  0
    6.8359    2.1653    0.0000 C   0  0  0  0  0  0  0  0  0  0  0  0
    7.6961    0.6619    0.0000 C   0  0  0  0  0  0  0  0  0  0  0  0
    7.7082   -0.3796    0.0000 C   0  0  0  0  0  0  0  0  0  0  0  0
    6.8081   -0.9039    0.0000 C   0  0  0  0  0  0  0  0  0  0  0  0
    7.7038    2.6619    0.0000 C   0  0  0  0  0  0  0  0  0  0  0  0
    7.7239    3.7034    0.0000 C   0  0  0  0  0  0  0  0  0  0  0  0
    6.8279    4.2346    0.0000 C   0  0  0  0  0  0  0  0  0  0  0  0
    5.9201    0.6619    0.0000 C   0  0  0  0  0  0  0  0  0  0  0  0
    5.9278    2.6756    0.0000 C   0  0  0  0  0  0  0  0  0  0  0  0
    5.9080   -0.3796    0.0000 C   0  0  0  0  0  0  0  0  0  0  0  0
    8.5641    1.1586    0.0000 C   0  0  0  0  0  0  0  0  0  0  0  0
    5.9238    3.7172    0.0000 C   0  0  0  0  0  0  0  0  0  0  0  0
    8.6581   -0.9039    0.0000 C   0  0  0  0  0  0  0  0  0  0  0  0
    6.7956   -1.9888    0.0000 C   0  0  0  0  0  0  0  0  0  0  0  0
    5.8479    1.3427    0.0000 C   0  0  0  0  0  0  0  0  0  0  0  0
    8.5679    2.1586    0.0000 C   0  0  0  0  0  0  0  0  0  0  0  0
    8.6778    4.2203    0.0000 C   0  0  0  0  0  0  0  0  0  0  0  0
    6.8237    5.3195    0.0000 C   0  0  0  0  0  0  0  0  0  0  0  0
    5.8504    1.9954    0.0000 C   0  0  0  0  0  0  0  0  0  0  0  0
    8.5723    0.1237    0.0000 C   0  0  0  0  0  0  0  0  0  0  0  0
    8.6987    5.3051    0.0000 C   0  0  0  0  0  0  0  0  0  0  0  0
    7.7331   -2.5349    0.0000 C   0  0  0  0  0  0  0  0  0  0  0  0
    8.6706   -1.9888    0.0000 C   0  0  0  0  0  0  0  0  0  0  0  0
    7.7654    5.8584    0.0000 C   0  0  0  0  0  0  0  0  0  0  0  0
    5.9677    4.7446    0.0000 C   0  0  0  0  0  0  0  0  0  0  0  0
    5.9257   -2.4822    0.0000 C   0  0  0  0  0  0  0  0  0  0  0  0
    9.6986    5.2897    0.0000 C   0  0  0  0  0  0  0  0  0  0  0  0
    9.2120    6.1633    0.0000 C   0  0  0  0  0  0  0  0  0  0  0  0
    6.8671   -4.0350    0.0000 C   0  0  0  0  0  0  0  0  0  0  0  0
    5.9577    6.8196    0.0000 C   0  0  0  0  0  0  0  0  0  0  0  0
    8.6430    7.3517    0.0000 C   0  0  0  0  0  0  0  0  0  0  0  0
    6.8671   -5.0350    0.0000 C   0  0  0  0  0  0  0  0  0  0  0  0
    6.0010   -5.5350    0.0000 C   0  0  0  0  0  0  0  0  0  0  0  0
    5.0917    7.3196    0.0000 C   0  0  0  0  0  0  0  0  0  0  0  0
    5.1350   -4.0350    0.0000 C   0  0  0  0  0  0  0  0  0  0  0  0
    5.1350   -5.0350    0.0000 C   0  0  0  0  0  0  0  0  0  0  0  0
    8.6507    8.3517    0.0000 C   0  0  0  0  0  0  0  0  0  0  0  0
    8.5991   -5.0350    0.0000 C   0  0  0  0  0  0  0  0  0  0  0  0
    7.7886    8.8583    0.0000 C   0  0  0  0  0  0  0  0  0  0  0  0
    4.2690   -3.5350    0.0000 C   0  0  0  0  0  0  0  0  0  0  0  0
    9.5206    8.8450    0.0000 C   0  0  0  0  0  0  0  0  0  0  0  0
    9.4651   -5.5350    0.0000 C   0  0  0  0  0  0  0  0  0  0  0  0
    4.2690   -6.5350    0.0000 C   0  0  0  0  0  0  0  0  0  0  0  0
    9.5283    9.8450    0.0000 C   0  0  0  0  0  0  0  0  0  0  0  0
   10.3312   -5.0350    0.0000 C   0  0  0  0  0  0  0  0  0  0  0  0
    9.4651   -3.5350    0.0000 C   0  0  0  0  0  0  0  0  0  0  0  0
   10.3312   -4.0350    0.0000 C   0  0  0  0  0  0  0  0  0  0  0  0
    3.4030   -7.0350    0.0000 C   0  0  0  0  0  0  0  0  0  0  0  0
    3.4030   -8.0350    0.0000 C   0  0  0  0  0  0  0  0  0  0  0  0
    5.1350   -8.0350    0.0000 C   0  0  0  0  0  0  0  0  0  0  0  0
    9.4651   -2.5349    0.0000 C   0  0  0  0  0  0  0  0  0  0  0  0
    4.2690   -8.5350    0.0000 C   0  0  0  0  0  0  0  0  0  0  0  0
    6.0010   -8.5350    0.0000 C   0  0  0  0  0  0  0  0  0  0  0  0
 37  1  1  1
 43  2  1  1
  2 55  1  0
 47  3  1  6
 54  3  1  1
 49  4  1  6
  4 56  1  0
  5 50  1  0
  6 51  1  0
  7 54  1  0
  7 60  1  0
 57  8  1  6
 63  8  1  6
  9 55  2  0
 10 56  2  0
 58 11  1  1
 61 12  1  6
 68 12  1  6
 13 63  1  0
 13 71  1  0
 14 65  1  0
 15 65  2  0
 16 68  1  0
 16 75  1  0
 67 17  1  1
 70 18  1  6
 72 19  1  1
 73 20  1  1
 74 21  1  6
 22 76  1  0
 77 23  1  1
 24 78  1  0
 25 26  1  0
 25 27  1  0
 25 33  1  0
 25 40  1  6
 26 30  1  0
 26 34  1  0
 26 44  1  6
 27 28  1  0
 27 36  1  6
 28 29  1  0
 28 38  1  0
 28 45  1  6
 29 35  1  0
 29 39  1  0
 30 31  1  0
 30 41  2  0
 31 32  1  0
 31 42  1  0
 32 37  1  0
 32 43  1  0
 32 50  1  6
 33 35  1  0
 34 37  1  0
 36 41  1  0
 38 48  1  0
 39 47  1  0
 39 51  1  6
 42 46  1  0
 43 49  1  0
 46 49  1  0
 46 52  1  0
 46 53  1  0
 47 48  1  0
 54 57  1  0
 55 59  1  0
 56 62  1  0
 57 58  1  0
 58 61  1  0
 60 61  1  0
 60 65  1  1
 62 64  1  0
 62 66  2  0
 63 67  1  0
 66 69  1  0
 67 70  1  0
 68 73  1  0
 70 72  1  0
 71 72  1  0
 71 76  1  6
 73 74  1  0
 74 77  1  0
 75 77  1  0
 75 78  1  6
M  END
>  <Curated_InChIs>  (5) 
InChI=1S/C54H84O24/c1-9-22(2)46(70)78-43-44(71-23(3)59)54(21-58)27(16-50(43,4)5)26-10-11-31-51(6)14-13-28(24(18-55)25(51)12-15-52(31,7)53(26,8)17-32(54)60)72-49-41(76-48-38(66)36(64)34(62)30(20-57)74-48)39(67)40(42(77-49)45(68)69)75-47-37(65)35(63)33(61)29(19-56)73-47/h9-10,24-25,27-44,47-49,55-58,60-67H,11-21H2,1-8H3,(H,68,69)

>  <PUBCHEM_IUPAC_NAME>  (5) 
(2S,3S,4S,5R,6R)-6-[[(3S,4S,6aR,6bR,8R,8aR,9R,10R,14aR,14bS)-9-acetyloxy-8-hydroxy-4,8a-bis(hydroxymethyl)-6a,6b,11,11,14b-pentamethyl-10-[(E)-2-methylbut-2-enoyl]oxy-2,3,4,4a,5,6,7,8,9,10,12,12a,14,14a-tetradecahydro-1H-picen-3-yl]oxy]-4-hydroxy-3,5-bis[[(2S,3R,4S,5S,6R)-3,4,5-trihydroxy-6-(hydroxymethyl)oxan-2-yl]oxy]oxane-2-carboxylic acid

>  <PUBCHEM_COMPOUND_CID>  (5) 
44575959

>  <acvalue>  (5) 
3.38844

>  <Classification>  (5) 
1

>  <SMILES>  (5) 
C/C=C(\C)C(=O)O[C@H]1[C@H](OC(C)=O)[C@@]2(CO)C(CC1(C)C)C1=CC[C@@H]3[C@@]4(C)CC[C@H](O[C@@H]5O[C@H](C(=O)O)[C@@H](O[C@@H]6O[C@H](CO)[C@@H](O)[C@H](O)[C@H]6O)[C@H](O)[C@H]5O[C@@H]5O[C@H](CO)[C@@H](O)[C@H](O)[C@H]5O)[C@H](CO)C4CC[C@@]3(C)[C@@]1(C)C[C@H]2O

>  <InChIKey>  (5) 
VSRMYECBCGPXAW-SIVHJCNUSA-N

$$$$
234102
     RDKit          2D

 37 41  0  0  1  0  0  0  0  0999 V2000
    3.7320   -2.6574    0.0000 O   0  0  0  0  0  0  0  0  0  0  0  0
    6.5270    0.8949    0.0000 O   0  0  0  0  0  0  0  0  0  0  0  0
   12.6571    0.4291    0.0000 O   0  0  0  0  0  0  0  0  0  0  0  0
   11.8027   -1.0775    0.0000 O   0  0  0  0  0  0  0  0  0  0  0  0
    2.8718   -1.1541    0.0000 O   0  0  0  0  0  0  0  0  0  0  0  0
    8.2591   -1.1050    0.0000 C   0  0  0  0  0  0  0  0  0  0  0  0
    6.4831   -1.1119    0.0000 C   0  0  0  0  0  0  0  0  0  0  0  0
    7.3931   -0.6051    0.0000 C   0  0  0  0  0  0  0  0  0  0  0  0
    9.1251   -0.6051    0.0000 C   0  0  0  0  0  0  0  0  0  0  0  0
    6.4750   -2.1535    0.0000 C   0  0  0  0  0  0  0  0  0  0  0  0
    8.2752   -2.1466    0.0000 C   0  0  0  0  0  0  0  0  0  0  0  0
    7.3771   -2.6743    0.0000 C   0  0  0  0  0  0  0  0  0  0  0  0
    5.5396   -2.7032    0.0000 C   0  0  0  0  0  0  0  0  0  0  0  0
    9.1251    0.3949    0.0000 C   0  0  0  0  0  0  0  0  0  0  0  0
   10.0191    0.9296    0.0000 C   0  0  0  0  0  0  0  0  0  0  0  0
   10.0191   -1.1397    0.0000 C   0  0  0  0  0  0  0  0  0  0  0  0
   10.9251    0.4158    0.0000 C   0  0  0  0  0  0  0  0  0  0  0  0
    5.5562   -0.5478    0.0000 C   0  0  0  0  0  0  0  0  0  0  0  0
   10.9251   -0.6259    0.0000 C   0  0  0  0  0  0  0  0  0  0  0  0
    7.3931    0.3949    0.0000 C   0  0  0  0  0  0  0  0  0  0  0  0
    8.9019   -1.8711    0.0000 C   0  0  0  0  0  0  0  0  0  0  0  0
    4.6000   -2.1607    0.0000 C   0  0  0  0  0  0  0  0  0  0  0  0
    6.4908   -0.1119    0.0000 C   0  0  0  0  0  0  0  0  0  0  0  0
    4.6084   -1.0758    0.0000 C   0  0  0  0  0  0  0  0  0  0  0  0
    9.9940    2.0143    0.0000 C   0  0  0  0  0  0  0  0  0  0  0  0
    9.4672   -1.5447    0.0000 C   0  0  0  0  0  0  0  0  0  0  0  0
    8.2591    0.8949    0.0000 C   0  0  0  0  0  0  0  0  0  0  0  0
   11.8689    0.9510    0.0000 C   0  0  0  0  0  0  0  0  0  0  0  0
   10.9251    2.5712    0.0000 C   0  0  0  0  0  0  0  0  0  0  0  0
    5.0430   -3.5712    0.0000 C   0  0  0  0  0  0  0  0  0  0  0  0
    6.0430   -3.5673    0.0000 C   0  0  0  0  0  0  0  0  0  0  0  0
   11.8689    2.0360    0.0000 C   0  0  0  0  0  0  0  0  0  0  0  0
   11.7950   -0.0775    0.0000 C   0  0  0  0  0  0  0  0  0  0  0  0
    9.1185    2.4975    0.0000 C   0  0  0  0  0  0  0  0  0  0  0  0
   10.9136    3.5712    0.0000 C   0  0  0  0  0  0  0  0  0  0  0  0
    2.8680   -2.1540    0.0000 C   0  0  0  0  0  0  0  0  0  0  0  0
    2.0000   -2.6507    0.0000 C   0  0  0  0  0  0  0  0  0  0  0  0
 22  1  1  1
  1 36  1  0
  2 20  2  0
  3 33  1  0
  4 33  2  0
  5 36  2  0
  6  8  1  0
  6  9  1  0
  6 11  1  0
  6 21  1  1
  7  8  1  0
  7 10  1  0
  7 18  1  0
  7 23  1  1
  8 20  1  1
  9 14  1  0
  9 16  1  0
  9 26  1  6
 10 12  1  1
 10 13  1  0
 11 12  1  0
 13 22  1  0
 13 30  1  0
 13 31  1  0
 15 14  1  6
 14 27  2  0
 15 17  1  0
 15 25  1  0
 16 19  1  0
 17 19  1  0
 17 28  1  0
 17 33  1  1
 18 24  1  0
 20 27  1  0
 22 24  1  0
 25 29  1  0
 25 34  1  1
 28 32  1  0
 29 32  1  0
 29 35  1  6
 36 37  1  0
M  END
>  <Curated_InChIs>  (6) 
InChI=1S/C32H48O5/c1-18-9-14-32(27(35)36)16-15-30(7)21(25(32)19(18)2)17-22(34)26-29(6)12-11-24(37-20(3)33)28(4,5)23(29)10-13-31(26,30)8/h17-19,23-26H,9-16H2,1-8H3,(H,35,36)

>  <PUBCHEM_IUPAC_NAME>  (6) 
(1S,2R,4aS,6aR,6aS,6bR,8aR,10S,12aS,14bS)-10-acetyloxy-1,2,6a,6b,9,9,12a-heptamethyl-13-oxo-1,2,3,4,5,6,6a,7,8,8a,10,11,12,14b-tetradecahydropicene-4a-carboxylic acid

>  <PUBCHEM_COMPOUND_CID>  (6) 
234102

>  <acvalue>  (6) 
11.4815

>  <Classification>  (6) 
0

>  <SMILES>  (6) 
CC(=O)O[C@H]1CC[C@@]2(C)[C@@H](CC[C@]3(C)[C@@H]2C(=O)C=C2[C@@H]4[C@@H](C)[C@H](C)CC[C@]4(C(=O)O)CC[C@]23C)C1(C)C

>  <InChIKey>  (6) 
XDHCWTUZCOFKRH-CIKBGXLUSA-N

$$$$
92095
     RDKit          2D

 30 35  0  0  1  0  0  0  0  0999 V2000
    5.5954   -2.5456    0.0000 O   0  0  0  0  0  0  0  0  0  0  0  0
    3.9300   -1.4644    0.0000 O   0  0  0  0  0  0  0  0  0  0  0  0
   12.0027    2.8336    0.0000 O   0  0  0  0  0  0  0  0  0  0  0  0
    6.6628   -0.3108    0.0000 C   0  0  0  0  0  0  0  0  0  0  0  0
    7.5288   -0.8108    0.0000 C   0  0  0  0  0  0  0  0  0  0  0  0
    5.9258   -0.9778    0.0000 C   0  0  0  0  0  0  0  0  0  0  0  0
    8.3948   -0.3108    0.0000 C   0  0  0  0  0  0  0  0  0  0  0  0
    8.3948    0.6892    0.0000 C   0  0  0  0  0  0  0  0  0  0  0  0
    6.3309   -1.8856    0.0000 C   0  0  0  0  0  0  0  0  0  0  0  0
    9.2888    1.2239    0.0000 C   0  0  0  0  0  0  0  0  0  0  0  0
    7.3196   -1.7826    0.0000 C   0  0  0  0  0  0  0  0  0  0  0  0
    6.6628    0.6892    0.0000 C   0  0  0  0  0  0  0  0  0  0  0  0
    7.5288    1.1892    0.0000 C   0  0  0  0  0  0  0  0  0  0  0  0
    4.9434   -1.0845    0.0000 C   0  0  0  0  0  0  0  0  0  0  0  0
   10.1949    0.7101    0.0000 C   0  0  0  0  0  0  0  0  0  0  0  0
    9.2888   -0.8454    0.0000 C   0  0  0  0  0  0  0  0  0  0  0  0
    4.7396   -2.0515    0.0000 C   0  0  0  0  0  0  0  0  0  0  0  0
   10.1949   -0.3316    0.0000 C   0  0  0  0  0  0  0  0  0  0  0  0
    5.7968    0.1892    0.0000 C   0  0  0  0  0  0  0  0  0  0  0  0
    9.2637    2.3086    0.0000 C   0  0  0  0  0  0  0  0  0  0  0  0
   11.1386    1.2453    0.0000 C   0  0  0  0  0  0  0  0  0  0  0  0
    8.4189    1.7172    0.0000 C   0  0  0  0  0  0  0  0  0  0  0  0
    4.2723   -0.3431    0.0000 C   0  0  0  0  0  0  0  0  0  0  0  0
   10.1949    2.8655    0.0000 C   0  0  0  0  0  0  0  0  0  0  0  0
    4.6359   -3.0461    0.0000 C   0  0  0  0  0  0  0  0  0  0  0  0
   11.1386    2.3303    0.0000 C   0  0  0  0  0  0  0  0  0  0  0  0
    3.7227   -3.4536    0.0000 C   0  0  0  0  0  0  0  0  0  0  0  0
    3.0169   -1.8719    0.0000 C   0  0  0  0  0  0  0  0  0  0  0  0
    2.9132   -2.8665    0.0000 C   0  0  0  0  0  0  0  0  0  0  0  0
    2.0000   -3.2741    0.0000 C   0  0  0  0  0  0  0  0  0  0  0  0
  1  9  1  0
 17  1  1  0
  2 17  1  0
  2 28  1  0
 26  3  1  6
  4  5  1  0
  4  6  1  0
  4 12  1  0
  4 19  1  6
  5  7  1  0
  5 11  1  6
  6  9  1  6
  6 14  1  0
  7  8  1  0
  7 16  1  1
  8 10  1  0
  8 13  1  6
  9 11  1  6
 10 15  1  0
 10 20  1  0
 10 22  1  6
 12 13  1  0
 14 17  1  0
 14 23  1  1
 15 18  1  1
 15 21  1  0
 16 18  1  0
 17 25  1  6
 20 24  1  0
 21 26  1  0
 24 26  1  0
 25 27  1  0
 27 29  1  0
 28 29  1  0
 29 30  1  6
M  END
>  <Curated_InChIs>  (7) 
InChI=1S/C27H44O3/c1-16-7-12-27(29-15-16)17(2)24-23(30-27)14-22-20-6-5-18-13-19(28)8-10-25(18,3)21(20)9-11-26(22,24)4/h16-24,28H,5-15H2,1-4H3

>  <PUBCHEM_IUPAC_NAME>  (7) 
(1R,2S,4S,5'S,6R,7S,8R,9S,12S,13S,16S,18R)-5',7,9,13-tetramethylspiro[5-oxapentacyclo[10.8.0.02,9.04,8.013,18]icosane-6,2'-oxane]-16-ol

>  <PUBCHEM_COMPOUND_CID>  (7) 
92095

>  <acvalue>  (7) 
0.10471

>  <Classification>  (7) 
1

>  <SMILES>  (7) 
C[C@H]1CC[C@@]2(OC1)O[C@H]1C[C@H]3[C@@H]4CC[C@@H]5C[C@@H](O)CC[C@]5(C)[C@H]4CC[C@]3(C)[C@H]1[C@@H]2C

>  <InChIKey>  (7) 
GMBQZIIUCVWOCD-WWASVFFGSA-N

$$$$
25096
     RDKit          2D

 55 60  0  0  1  0  0  0  0  0999 V2000
    8.5895    0.6200    0.0000 Cl  0  0  0  0  0  0  0  0  0  0  0  0
   12.9197    8.1200    0.0000 O   0  0  0  0  0  0  0  0  0  0  0  0
   14.6517   10.1200    0.0000 O   0  0  0  0  0  0  0  0  0  0  0  0
    0.8660    6.6281    0.0000 O   0  0  0  0  0  0  0  0  0  0  0  0
    1.3126    4.0959    0.0000 O   0  0  0  0  0  0  0  0  0  0  0  0
    0.8660    9.6281    0.0000 O   0  0  0  0  0  0  0  0  0  0  0  0
    2.3386    1.2769    0.0000 O   0  0  0  0  0  0  0  0  0  0  0  0
    0.0000    8.1281    0.0000 O   0  0  0  0  0  0  0  0  0  0  0  0
    1.0117    2.3902    0.0000 O   0  0  0  0  0  0  0  0  0  0  0  0
   12.0536    3.6200    0.0000 N   0  0  0  0  0  0  0  0  0  0  0  0
   12.0536    5.6200    0.0000 N   0  0  0  0  0  0  0  0  0  0  0  0
   11.1876    4.1200    0.0000 C   0  0  0  0  0  0  0  0  0  0  0  0
   12.9197    4.1200    0.0000 C   0  0  0  0  0  0  0  0  0  0  0  0
   11.1876    5.1200    0.0000 C   0  0  0  0  0  0  0  0  0  0  0  0
   12.9197    5.1200    0.0000 C   0  0  0  0  0  0  0  0  0  0  0  0
   12.0536    2.6200    0.0000 C   0  0  0  0  0  0  0  0  0  0  0  0
   12.0536    6.6200    0.0000 C   0  0  0  0  0  0  0  0  0  0  0  0
   11.1876    2.1200    0.0000 C   0  0  0  0  0  0  0  0  0  0  0  0
   12.9197    2.1200    0.0000 C   0  0  0  0  0  0  0  0  0  0  0  0
   12.9197    7.1200    0.0000 C   0  0  0  0  0  0  0  0  0  0  0  0
   10.3216    2.6200    0.0000 C   0  0  0  0  0  0  0  0  0  0  0  0
   11.1876    1.1200    0.0000 C   0  0  0  0  0  0  0  0  0  0  0  0
   13.7857    2.6200    0.0000 C   0  0  0  0  0  0  0  0  0  0  0  0
   12.9197    1.1200    0.0000 C   0  0  0  0  0  0  0  0  0  0  0  0
    9.4556    2.1200    0.0000 C   0  0  0  0  0  0  0  0  0  0  0  0
   10.3216    0.6200    0.0000 C   0  0  0  0  0  0  0  0  0  0  0  0
   14.6517    2.1200    0.0000 C   0  0  0  0  0  0  0  0  0  0  0  0
   13.7857    0.6200    0.0000 C   0  0  0  0  0  0  0  0  0  0  0  0
    9.4556    1.1200    0.0000 C   0  0  0  0  0  0  0  0  0  0  0  0
   14.6517    1.1200    0.0000 C   0  0  0  0  0  0  0  0  0  0  0  0
   13.7857    8.6200    0.0000 C   0  0  0  0  0  0  0  0  0  0  0  0
   13.7857    9.6200    0.0000 C   0  0  0  0  0  0  0  0  0  0  0  0
    2.5981    5.6281    0.0000 C   0  0  0  0  0  0  0  0  0  0  0  0
    2.5981    6.6281    0.0000 C   0  0  0  0  0  0  0  0  0  0  0  0
    2.9401    4.6884    0.0000 C   0  0  0  0  0  0  0  0  0  0  0  0
    3.4641    7.1281    0.0000 C   0  0  0  0  0  0  0  0  0  0  0  0
    3.9249    4.5147    0.0000 C   0  0  0  0  0  0  0  0  0  0  0  0
    3.4641    8.1281    0.0000 C   0  0  0  0  0  0  0  0  0  0  0  0
    4.2669    3.5750    0.0000 C   0  0  0  0  0  0  0  0  0  0  0  0
    1.7320    7.1281    0.0000 C   0  0  0  0  0  0  0  0  0  0  0  0
    2.2973    3.9223    0.0000 C   0  0  0  0  0  0  0  0  0  0  0  0
    1.7320    8.1281    0.0000 C   0  0  0  0  0  0  0  0  0  0  0  0
    2.6393    2.9826    0.0000 C   0  0  0  0  0  0  0  0  0  0  0  0
    2.5981    8.6281    0.0000 C   0  0  0  0  0  0  0  0  0  0  0  0
    3.6241    2.8090    0.0000 C   0  0  0  0  0  0  0  0  0  0  0  0
    4.3580    6.5934    0.0000 C   0  0  0  0  0  0  0  0  0  0  0  0
    4.5821    5.3229    0.0000 C   0  0  0  0  0  0  0  0  0  0  0  0
    4.3580    8.6627    0.0000 C   0  0  0  0  0  0  0  0  0  0  0  0
    5.2898    3.3784    0.0000 C   0  0  0  0  0  0  0  0  0  0  0  0
    5.2641    7.1072    0.0000 C   0  0  0  0  0  0  0  0  0  0  0  0
    5.6092    5.1499    0.0000 C   0  0  0  0  0  0  0  0  0  0  0  0
    5.2641    8.1489    0.0000 C   0  0  0  0  0  0  0  0  0  0  0  0
    5.9655    4.1711    0.0000 C   0  0  0  0  0  0  0  0  0  0  0  0
    0.8660    8.6281    0.0000 C   0  0  0  0  0  0  0  0  0  0  0  0
    1.9965    2.2166    0.0000 C   0  0  0  0  0  0  0  0  0  0  0  0
  1 29  1  0
  2 20  1  0
  2 31  1  0
  3 32  1  0
  4 40  1  0
  5 41  1  0
  6 54  1  0
  7 55  1  0
  8 54  2  0
  9 55  2  0
 10 12  1  0
 10 13  1  0
 10 16  1  0
 11 14  1  0
 11 15  1  0
 11 17  1  0
 12 14  1  0
 13 15  1  0
 16 18  1  0
 16 19  1  0
 17 20  1  0
 18 21  2  0
 18 22  1  0
 19 23  2  0
 19 24  1  0
 21 25  1  0
 22 26  2  0
 23 27  1  0
 24 28  2  0
 25 29  2  0
 26 29  1  0
 27 30  2  0
 28 30  1  0
 31 32  1  0
 33 34  1  0
 33 35  1  0
 34 36  1  0
 34 40  2  0
 35 37  1  0
 35 41  2  0
 36 38  2  0
 36 46  1  0
 37 39  2  0
 37 47  1  0
 38 44  1  0
 38 48  1  0
 39 45  1  0
 39 49  1  0
 40 42  1  0
 41 43  1  0
 42 44  2  0
 42 54  1  0
 43 45  2  0
 43 55  1  0
 46 50  2  0
 47 51  2  0
 48 52  2  0
 49 53  2  0
 50 52  1  0
 51 53  1  0
M  END
>  <Curated_InChIs>  (8) 
InChI=1S/C23H16O6.C21H27ClN2O2/c24-20-16(14-7-3-1-5-12(14)9-18(20)22(26)27)11-17-15-8-4-2-6-13(15)10-19(21(17)25)23(28)29;22-20-8-6-19(7-9-20)21(18-4-2-1-3-5-18)24-12-10-23(11-13-24)14-16-26-17-15-25/h1-10,24-25H,11H2,(H,26,27)(H,28,29);1-9,21,25H,10-17H2

>  <PUBCHEM_IUPAC_NAME>  (8) 
4-[(3-carboxy-2-hydroxynaphthalen-1-yl)methyl]-3-hydroxynaphthalene-2-carboxylic acid;2-[2-[4-[(4-chlorophenyl)-phenylmethyl]piperazin-1-yl]ethoxy]ethanol

>  <PUBCHEM_COMPOUND_CID>  (8) 
25096

>  <acvalue>  (8) 
1.23027

>  <Classification>  (8) 
1

>  <SMILES>  (8) 
O=C(O)c1cc2ccccc2c(Cc2c(O)c(C(=O)O)cc3ccccc23)c1O.OCCOCCN1CCN(C(c2ccccc2)c2ccc(Cl)cc2)CC1

>  <InChIKey>  (8) 
ASDOKGIIKXGMNB-UHFFFAOYSA-N

$$$$
23675786
     RDKit          2D

 32 33  0  0  1  0  0  0  0  0999 V2000
    3.2221    2.9668    0.0000 Cl  0  0  0  0  0  0  0  0  0  0  0  0
    1.3414    5.8760    0.0000 Cl  0  0  0  0  0  0  0  0  0  0  0  0
    8.4466    4.2633    0.0000 S   0  0  0  0  0  0  0  0  0  0  0  0
    8.3955    0.0000    0.0000 Na  0  0  0  0  0 15  0  0  0  0  0  0
    5.7816    2.2416    0.0000 O   0  0  0  0  0  0  0  0  0  0  0  0
    8.0865    0.9511    0.0000 O   0  0  0  0  0  0  0  0  0  0  0  0
    9.7338    1.4863    0.0000 O   0  0  0  0  0  0  0  0  0  0  0  0
    4.5544    3.4448    0.0000 O   0  0  0  0  0  0  0  0  0  0  0  0
    3.3779    6.5619    0.0000 O   0  0  0  0  0  0  0  0  0  0  0  0
    5.1725    9.1127    0.0000 O   0  0  0  0  0  0  0  0  0  0  0  0
    7.4956    2.9543    0.0000 N   0  0  0  0  0  0  0  0  0  0  0  0
    5.7816    4.6670    0.0000 N   0  0  0  0  0  0  0  0  0  0  0  0
    2.6693    5.8562    0.0000 N   0  0  0  0  0  0  0  0  0  0  0  0
    7.4956    3.9543    0.0000 C   0  0  0  0  0  0  0  0  0  0  0  0
    9.0344    3.4543    0.0000 C   0  0  0  0  0  0  0  0  0  0  0  0
    8.4466    2.6453    0.0000 C   0  0  0  0  0  0  0  0  0  0  0  0
    6.4873    3.9584    0.0000 C   0  0  0  0  0  0  0  0  0  0  0  0
    6.4873    2.9501    0.0000 C   0  0  0  0  0  0  0  0  0  0  0  0
    9.8434    4.0421    0.0000 C   0  0  0  0  0  0  0  0  0  0  0  0
    9.8434    2.8665    0.0000 C   0  0  0  0  0  0  0  0  0  0  0  0
    8.7556    1.6942    0.0000 C   0  0  0  0  0  0  0  0  0  0  0  0
    4.8152    4.4101    0.0000 C   0  0  0  0  0  0  0  0  0  0  0  0
    4.1095    5.1187    0.0000 C   0  0  0  0  0  0  0  0  0  0  0  0
    3.1215    4.9643    0.0000 C   0  0  0  0  0  0  0  0  0  0  0  0
    4.2680    6.1061    0.0000 C   0  0  0  0  0  0  0  0  0  0  0  0
    2.2817    4.4214    0.0000 C   0  0  0  0  0  0  0  0  0  0  0  0
    5.1599    6.5582    0.0000 C   0  0  0  0  0  0  0  0  0  0  0  0
    2.3320    3.4226    0.0000 C   0  0  0  0  0  0  0  0  0  0  0  0
    1.3916    4.8772    0.0000 C   0  0  0  0  0  0  0  0  0  0  0  0
    1.4923    2.8797    0.0000 C   0  0  0  0  0  0  0  0  0  0  0  0
    0.5519    4.3343    0.0000 C   0  0  0  0  0  0  0  0  0  0  0  0
    0.6022    3.3355    0.0000 C   0  0  0  0  0  0  0  0  0  0  0  0
  1 28  1  0
  2 29  1  0
 14  3  1  1
  3 15  1  0
  5 18  2  0
  6 21  1  0
  7 21  2  0
  8 22  2  0
  9 13  1  0
  9 25  1  0
 11 14  1  0
 11 16  1  0
 11 18  1  0
 17 12  1  1
 12 22  1  0
 13 24  2  0
 14 17  1  0
 15 16  1  0
 15 19  1  0
 15 20  1  0
 16 21  1  6
 17 18  1  0
 22 23  1  0
 23 24  1  0
 23 25  2  0
 24 26  1  0
 25 27  1  0
 26 28  2  0
 26 29  1  0
 28 30  1  0
 29 31  2  0
 30 32  2  0
 31 32  1  0
M  CHG  2   4   1   6  -1
M  END
>  <Curated_InChIs>  (9) 
InChI=1S/C19H17Cl2N3O5S.Na.H2O/c1-7-10(12(23-29-7)11-8(20)5-4-6-9(11)21)15(25)22-13-16(26)24-14(18(27)28)19(2,3)30-17(13)24;;/h4-6,13-14,17H,1-3H3,(H,22,25)(H,27,28);;1H2

>  <PUBCHEM_IUPAC_NAME>  (9) 
sodium;(2S,5R,6R)-6-[[3-(2,6-dichlorophenyl)-5-methyl-1,2-oxazole-4-carbonyl]amino]-3,3-dimethyl-7-oxo-4-thia-1-azabicyclo[3.2.0]heptane-2-carboxylate;hydrate

>  <PUBCHEM_COMPOUND_CID>  (9) 
23675786

>  <acvalue>  (9) 
1.99526

>  <Classification>  (9) 
1

>  <SMILES>  (9) 
Cc1onc(-c2c(Cl)cccc2Cl)c1C(=O)N[C@@H]1C(=O)N2[C@@H](C(=O)[O-])C(C)(C)S[C@H]12.O.[Na+]

>  <InChIKey>  (9) 
SIGZQNJITOWQEF-VICXVTCVSA-M

$$$$
636402
     RDKit          2D

 43 45  0  0  1  0  0  0  0  0999 V2000
    2.0000   -2.9785    0.0000 Na  0  0  0  0  0 15  0  0  0  0  0  0
   16.3690    3.9852    0.0000 Na  0  0  0  0  0 15  0  0  0  0  0  0
    7.1961   -2.9985    0.0000 O   0  0  0  0  0  0  0  0  0  0  0  0
    9.9911    0.5538    0.0000 O   0  0  0  0  0  0  0  0  0  0  0  0
   15.8791    3.1134    0.0000 O   0  0  0  0  0  0  0  0  0  0  0  0
   14.3692    3.9620    0.0000 O   0  0  0  0  0  0  0  0  0  0  0  0
    6.3359   -1.4952    0.0000 O   0  0  0  0  0  0  0  0  0  0  0  0
    2.8680   -2.4818    0.0000 O   0  0  0  0  0  0  0  0  0  0  0  0
    3.7282   -3.9852    0.0000 O   0  0  0  0  0  0  0  0  0  0  0  0
   11.7232   -1.4462    0.0000 C   0  0  0  0  0  0  0  0  0  0  0  0
    9.9472   -1.4530    0.0000 C   0  0  0  0  0  0  0  0  0  0  0  0
   10.8571   -0.9462    0.0000 C   0  0  0  0  0  0  0  0  0  0  0  0
   12.5892   -0.9462    0.0000 C   0  0  0  0  0  0  0  0  0  0  0  0
    9.9391   -2.4946    0.0000 C   0  0  0  0  0  0  0  0  0  0  0  0
   11.7392   -2.4877    0.0000 C   0  0  0  0  0  0  0  0  0  0  0  0
   10.8412   -3.0154    0.0000 C   0  0  0  0  0  0  0  0  0  0  0  0
    9.0037   -3.0444    0.0000 C   0  0  0  0  0  0  0  0  0  0  0  0
   12.5892    0.0538    0.0000 C   0  0  0  0  0  0  0  0  0  0  0  0
   13.4831    0.5885    0.0000 C   0  0  0  0  0  0  0  0  0  0  0  0
   14.3892    0.0746    0.0000 C   0  0  0  0  0  0  0  0  0  0  0  0
   13.4831   -1.4808    0.0000 C   0  0  0  0  0  0  0  0  0  0  0  0
    9.0203   -0.8890    0.0000 C   0  0  0  0  0  0  0  0  0  0  0  0
   14.3892   -0.9670    0.0000 C   0  0  0  0  0  0  0  0  0  0  0  0
   10.8571    0.0538    0.0000 C   0  0  0  0  0  0  0  0  0  0  0  0
   12.3660   -2.2122    0.0000 C   0  0  0  0  0  0  0  0  0  0  0  0
    8.0641   -2.5019    0.0000 C   0  0  0  0  0  0  0  0  0  0  0  0
    9.9548   -0.4531    0.0000 C   0  0  0  0  0  0  0  0  0  0  0  0
    8.0724   -1.4169    0.0000 C   0  0  0  0  0  0  0  0  0  0  0  0
   12.9313   -1.8858    0.0000 C   0  0  0  0  0  0  0  0  0  0  0  0
   11.7232    0.5538    0.0000 C   0  0  0  0  0  0  0  0  0  0  0  0
   13.4580    1.6732    0.0000 C   0  0  0  0  0  0  0  0  0  0  0  0
   15.3330    0.6099    0.0000 C   0  0  0  0  0  0  0  0  0  0  0  0
   14.3892    2.2301    0.0000 C   0  0  0  0  0  0  0  0  0  0  0  0
   15.3330    1.6949    0.0000 C   0  0  0  0  0  0  0  0  0  0  0  0
    8.5070   -3.9123    0.0000 C   0  0  0  0  0  0  0  0  0  0  0  0
    9.5070   -3.9084    0.0000 C   0  0  0  0  0  0  0  0  0  0  0  0
   15.2591   -0.4187    0.0000 C   0  0  0  0  0  0  0  0  0  0  0  0
   13.8792    3.0903    0.0000 C   0  0  0  0  0  0  0  0  0  0  0  0
   14.8792    3.1019    0.0000 C   0  0  0  0  0  0  0  0  0  0  0  0
    6.3320   -2.4952    0.0000 C   0  0  0  0  0  0  0  0  0  0  0  0
    5.4641   -2.9918    0.0000 C   0  0  0  0  0  0  0  0  0  0  0  0
    4.6000   -2.4885    0.0000 C   0  0  0  0  0  0  0  0  0  0  0  0
    3.7320   -2.9852    0.0000 C   0  0  0  0  0  0  0  0  0  0  0  0
 26  3  1  1
  3 40  1  0
  4 24  2  0
  5 39  1  0
  6 39  2  0
  7 40  2  0
  8 43  1  0
  9 43  2  0
 10 12  1  0
 10 13  1  0
 10 15  1  0
 10 25  1  1
 11 12  1  0
 11 14  1  0
 11 22  1  0
 11 27  1  1
 12 24  1  1
 13 18  1  0
 13 21  1  0
 13 29  1  6
 14 16  1  1
 14 17  1  0
 15 16  1  0
 17 26  1  0
 17 35  1  0
 17 36  1  0
 18 19  1  0
 18 30  2  0
 19 20  1  0
 19 31  1  6
 20 23  1  0
 20 32  1  0
 20 37  1  1
 21 23  1  0
 22 28  1  0
 24 30  1  0
 26 28  1  0
 31 33  1  0
 32 34  1  0
 33 34  1  0
 33 38  1  6
 33 39  1  0
 40 41  1  0
 41 42  1  0
 42 43  1  0
M  CHG  4   1   1   2   1   5  -1   8  -1
M  END
>  <Curated_InChIs>  (10) 
InChI=1S/C34H50O7.2Na/c1-29(2)23-10-13-34(7)27(32(23,5)12-11-24(29)41-26(38)9-8-25(36)37)22(35)18-20-21-19-31(4,28(39)40)15-14-30(21,3)16-17-33(20,34)6;;/h18,21,23-24,27H,8-17,19H2,1-7H3,(H,36,37)(H,39,40);;

>  <PUBCHEM_IUPAC_NAME>  (10) 
disodium;(2S,4aS,6aR,6aS,6bR,8aR,10S,12aS,14bR)-10-(3-carboxylatopropanoyloxy)-2,4a,6a,6b,9,9,12a-heptamethyl-13-oxo-3,4,5,6,6a,7,8,8a,10,11,12,14b-dodecahydro-1H-picene-2-carboxylate

>  <PUBCHEM_COMPOUND_CID>  (10) 
636402

>  <acvalue>  (10) 
1.90546

>  <Classification>  (10) 
1

>  <SMILES>  (10) 
CC1(C)[C@@H](OC(=O)CCC(=O)[O-])CC[C@@]2(C)[C@H]1CC[C@]1(C)[C@@H]2C(=O)C=C2[C@@H]3C[C@@](C)(C(=O)[O-])CC[C@]3(C)CC[C@]21C.[Na+].[Na+]

>  <InChIKey>  (10) 
BQENDLAVTKRQMS-SBBGFIFASA-L

$$$$
6426773
     RDKit          2D

 43 44  0  0  1  0  0  0  0  0999 V2000
    3.4030   -2.3854    0.0000 Na  0  0  0  0  0 15  0  0  0  0  0  0
    7.7901    1.2023    0.0000 O   0  0  0  0  0  0  0  0  0  0  0  0
    8.9651    3.6534    0.0000 O   0  0  0  0  0  0  0  0  0  0  0  0
    7.5991    6.0194    0.0000 O   0  0  0  0  0  0  0  0  0  0  0  0
    6.8671   -0.3854    0.0000 O   0  0  0  0  0  0  0  0  0  0  0  0
    6.0010   -1.8854    0.0000 O   0  0  0  0  0  0  0  0  0  0  0  0
    2.5369   -4.8854    0.0000 O   0  0  0  0  0  0  0  0  0  0  0  0
    3.4030   -3.3854    0.0000 O   0  0  0  0  0  0  0  0  0  0  0  0
    5.1350   -3.3854    0.0000 O   0  0  0  0  0  0  0  0  0  0  0  0
    8.0991    2.1534    0.0000 C   0  0  0  0  0  0  0  0  0  0  0  0
    9.0991    2.1534    0.0000 C   0  0  0  0  0  0  0  0  0  0  0  0
    9.4081    1.2023    0.0000 C   0  0  0  0  0  0  0  0  0  0  0  0
    8.0991    3.1534    0.0000 C   0  0  0  0  0  0  0  0  0  0  0  0
    8.5991    0.6146    0.0000 C   0  0  0  0  0  0  0  0  0  0  0  0
    7.2331    3.6534    0.0000 C   0  0  0  0  0  0  0  0  0  0  0  0
    7.1481    2.4624    0.0000 C   0  0  0  0  0  0  0  0  0  0  0  0
    8.5991   -0.3854    0.0000 C   0  0  0  0  0  0  0  0  0  0  0  0
    8.0991    5.1534    0.0000 C   0  0  0  0  0  0  0  0  0  0  0  0
    7.2331    4.6534    0.0000 C   0  0  0  0  0  0  0  0  0  0  0  0
    8.9651    4.6534    0.0000 C   0  0  0  0  0  0  0  0  0  0  0  0
   10.3592    0.8933    0.0000 C   0  0  0  0  0  0  0  0  0  0  0  0
    9.4651   -0.8854    0.0000 C   0  0  0  0  0  0  0  0  0  0  0  0
    7.7331   -0.8854    0.0000 C   0  0  0  0  0  0  0  0  0  0  0  0
    8.5991    6.0194    0.0000 C   0  0  0  0  0  0  0  0  0  0  0  0
    6.4049    1.7933    0.0000 C   0  0  0  0  0  0  0  0  0  0  0  0
    9.8312    5.1534    0.0000 C   0  0  0  0  0  0  0  0  0  0  0  0
    7.7331   -1.8854    0.0000 C   0  0  0  0  0  0  0  0  0  0  0  0
    6.8671   -2.3854    0.0000 C   0  0  0  0  0  0  0  0  0  0  0  0
    9.4651   -1.8854    0.0000 C   0  0  0  0  0  0  0  0  0  0  0  0
    8.0991    6.8854    0.0000 C   0  0  0  0  0  0  0  0  0  0  0  0
    6.8671   -3.3854    0.0000 C   0  0  0  0  0  0  0  0  0  0  0  0
    8.5991   -2.3854    0.0000 C   0  0  0  0  0  0  0  0  0  0  0  0
    6.0010   -3.8854    0.0000 C   0  0  0  0  0  0  0  0  0  0  0  0
    7.7331   -3.8854    0.0000 C   0  0  0  0  0  0  0  0  0  0  0  0
    6.0010   -4.8854    0.0000 C   0  0  0  0  0  0  0  0  0  0  0  0
    5.1350   -5.3854    0.0000 C   0  0  0  0  0  0  0  0  0  0  0  0
    4.2690   -4.8854    0.0000 C   0  0  0  0  0  0  0  0  0  0  0  0
    5.1350   -6.3854    0.0000 C   0  0  0  0  0  0  0  0  0  0  0  0
    3.4030   -5.3854    0.0000 C   0  0  0  0  0  0  0  0  0  0  0  0
    4.2690   -6.8854    0.0000 C   0  0  0  0  0  0  0  0  0  0  0  0
    3.4030   -6.3854    0.0000 C   0  0  0  0  0  0  0  0  0  0  0  0
    4.2690   -3.8854    0.0000 C   0  0  0  0  0  0  0  0  0  0  0  0
    2.5369   -6.8854    0.0000 C   0  0  0  0  0  0  0  0  0  0  0  0
  2 10  1  0
 14  2  1  1
  3 13  1  0
  3 20  1  0
 18  4  1  1
  5 23  2  0
 28  6  1  6
  7 39  1  0
  8 42  1  0
  9 42  2  0
 10 11  1  0
 10 13  1  0
 10 16  1  1
 11 12  1  0
 12 14  1  0
 12 21  1  6
 13 15  1  1
 14 17  1  0
 15 19  1  0
 16 25  1  0
 17 22  1  1
 17 23  1  0
 18 19  1  0
 18 20  1  0
 18 24  1  0
 20 26  1  6
 22 29  1  0
 23 27  1  0
 24 30  1  0
 27 28  1  0
 27 32  1  1
 28 31  1  0
 31 33  1  0
 31 34  1  6
 33 35  1  0
 35 36  1  0
 36 37  2  0
 36 38  1  0
 37 39  1  0
 37 42  1  0
 38 40  2  0
 39 41  2  0
 40 41  1  0
 41 43  1  0
M  CHG  2   1   1   8  -1
M  END
>  <Curated_InChIs>  (11) 
InChI=1S/C34H54O8.Na/c1-9-25(31-21(6)18-34(11-3,42-31)26-16-17-33(40,10-2)23(8)41-26)30(37)22(7)28(35)19(4)12-14-24-15-13-20(5)29(36)27(24)32(38)39;/h13,15,19,21-23,25-26,28,31,35-36,40H,9-12,14,16-18H2,1-8H3,(H,38,39);

>  <PUBCHEM_IUPAC_NAME>  (11) 
sodium;6-[(3R,4S,5S,7R)-7-[(2S,3S,5S)-5-ethyl-5-[(2R,5R,6S)-5-ethyl-5-hydroxy-6-methyloxan-2-yl]-3-methyloxolan-2-yl]-4-hydroxy-3,5-dimethyl-6-oxononyl]-2-hydroxy-3-methylbenzoate

>  <PUBCHEM_COMPOUND_CID>  (11) 
6426773

>  <acvalue>  (11) 
0.77625

>  <Classification>  (11) 
1

>  <SMILES>  (11) 
CC[C@@H](C(=O)[C@@H](C)[C@@H](O)[C@H](C)CCc1ccc(C)c(O)c1C(=O)[O-])[C@H]1O[C@](CC)([C@H]2CC[C@](O)(CC)[C@H](C)O2)C[C@@H]1C.[Na+]

>  <InChIKey>  (11) 
RDHDUYAKDYQPEW-HWLWSTNVSA-M

$$$$
441371
     RDKit          2D

 72 73  0  0  1  0  0  0  0  0999 V2000
    1.4030    0.8660    0.0000 S   0  0  0  0  0  0  0  0  0  0  0  0
    5.7331    9.0230    0.0000 O   0  0  0  0  0  0  0  0  0  0  0  0
    7.4651    9.0230    0.0000 O   0  0  0  0  0  0  0  0  0  0  0  0
    4.0010    9.0230    0.0000 O   0  0  0  0  0  0  0  0  0  0  0  0
    3.9012   10.7818    0.0000 O   0  0  0  0  0  0  0  0  0  0  0  0
    9.1972    9.0230    0.0000 O   0  0  0  0  0  0  0  0  0  0  0  0
    9.1972   12.0230    0.0000 O   0  0  0  0  0  0  0  0  0  0  0  0
    5.7331    7.0230    0.0000 O   0  0  0  0  0  0  0  0  0  0  0  0
    9.6972    6.1569    0.0000 O   0  0  0  0  0  0  0  0  0  0  0  0
   10.9292    7.0230    0.0000 O   0  0  0  0  0  0  0  0  0  0  0  0
    8.5900   14.4889    0.0000 O   0  0  0  0  0  0  0  0  0  0  0  0
    8.1080   12.2570    0.0000 O   0  0  0  0  0  0  0  0  0  0  0  0
    4.8671   13.5230    0.0000 O   0  0  0  0  0  0  0  0  0  0  0  0
    7.4651   12.0230    0.0000 O   0  0  0  0  0  0  0  0  0  0  0  0
    5.3910    5.0833    0.0000 O   0  0  0  0  0  0  0  0  0  0  0  0
    2.2690    1.3660    0.0000 O   0  0  0  0  0  0  0  0  0  0  0  0
    0.5369    0.3660    0.0000 O   0  0  0  0  0  0  0  0  0  0  0  0
    0.9030    1.7320    0.0000 O   0  0  0  0  0  0  0  0  0  0  0  0
    1.9030    0.0000    0.0000 O   0  0  0  0  0  0  0  0  0  0  0  0
    4.0010    6.0230    0.0000 N   0  0  0  0  0  0  0  0  0  0  0  0
    5.7331   10.0230    0.0000 C   0  0  0  0  0  0  0  0  0  0  0  0
    6.5991   10.5230    0.0000 C   0  0  0  0  0  0  0  0  0  0  0  0
    4.8671   10.5230    0.0000 C   0  0  0  0  0  0  0  0  0  0  0  0
    7.4651   10.0230    0.0000 C   0  0  0  0  0  0  0  0  0  0  0  0
    4.8671   11.5230    0.0000 C   0  0  0  0  0  0  0  0  0  0  0  0
    8.3312   10.5230    0.0000 C   0  0  0  0  0  0  0  0  0  0  0  0
    4.8671    8.5230    0.0000 C   0  0  0  0  0  0  0  0  0  0  0  0
    5.7331   12.0230    0.0000 C   0  0  0  0  0  0  0  0  0  0  0  0
    4.8671    7.5230    0.0000 C   0  0  0  0  0  0  0  0  0  0  0  0
    4.0010    7.0230    0.0000 C   0  0  0  0  0  0  0  0  0  0  0  0
    6.5991   11.5230    0.0000 C   0  0  0  0  0  0  0  0  0  0  0  0
    8.3312    8.5230    0.0000 C   0  0  0  0  0  0  0  0  0  0  0  0
    9.1972    7.0230    0.0000 C   0  0  0  0  0  0  0  0  0  0  0  0
    4.1600    9.8158    0.0000 C   0  0  0  0  0  0  0  0  0  0  0  0
    8.3312    7.5230    0.0000 C   0  0  0  0  0  0  0  0  0  0  0  0
    3.1350    7.5230    0.0000 C   0  0  0  0  0  0  0  0  0  0  0  0
   10.0632    7.5230    0.0000 C   0  0  0  0  0  0  0  0  0  0  0  0
    3.1350    8.5230    0.0000 C   0  0  0  0  0  0  0  0  0  0  0  0
    6.5991   13.5230    0.0000 C   0  0  0  0  0  0  0  0  0  0  0  0
    8.3312   13.5230    0.0000 C   0  0  0  0  0  0  0  0  0  0  0  0
    7.4651   13.0230    0.0000 C   0  0  0  0  0  0  0  0  0  0  0  0
   10.0632    8.5230    0.0000 C   0  0  0  0  0  0  0  0  0  0  0  0
    5.7331   13.0230    0.0000 C   0  0  0  0  0  0  0  0  0  0  0  0
    9.1972   13.0230    0.0000 C   0  0  0  0  0  0  0  0  0  0  0  0
    8.3312   11.5230    0.0000 C   0  0  0  0  0  0  0  0  0  0  0  0
    9.1972   10.0230    0.0000 C   0  0  0  0  0  0  0  0  0  0  0  0
    5.7331   11.0230    0.0000 C   0  0  0  0  0  0  0  0  0  0  0  0
    8.6972    6.1569    0.0000 C   0  0  0  0  0  0  0  0  0  0  0  0
    2.2690    9.0230    0.0000 C   0  0  0  0  0  0  0  0  0  0  0  0
    6.5991   14.5230    0.0000 C   0  0  0  0  0  0  0  0  0  0  0  0
    7.7576   14.3421    0.0000 C   0  0  0  0  0  0  0  0  0  0  0  0
   10.0632   13.5230    0.0000 C   0  0  0  0  0  0  0  0  0  0  0  0
   10.9292    9.0230    0.0000 C   0  0  0  0  0  0  0  0  0  0  0  0
    3.1350    5.5230    0.0000 C   0  0  0  0  0  0  0  0  0  0  0  0
    4.3431    5.0833    0.0000 C   0  0  0  0  0  0  0  0  0  0  0  0
   10.9292   13.0230    0.0000 C   0  0  0  0  0  0  0  0  0  0  0  0
    5.7331    6.0230    0.0000 C   0  0  0  0  0  0  0  0  0  0  0  0
    9.1972    5.2909    0.0000 C   0  0  0  0  0  0  0  0  0  0  0  0
    6.5991    5.5230    0.0000 C   0  0  0  0  0  0  0  0  0  0  0  0
    6.5991    4.5230    0.0000 C   0  0  0  0  0  0  0  0  0  0  0  0
    7.4651    1.3660    0.0000 C   0  0  0  0  0  0  0  0  0  0  0  0
    8.3312    0.8660    0.0000 C   0  0  0  0  0  0  0  0  0  0  0  0
    6.5991    0.8660    0.0000 C   0  0  0  0  0  0  0  0  0  0  0  0
    9.1972    1.3660    0.0000 C   0  0  0  0  0  0  0  0  0  0  0  0
    5.7331    1.3660    0.0000 C   0  0  0  0  0  0  0  0  0  0  0  0
   10.0632    0.8660    0.0000 C   0  0  0  0  0  0  0  0  0  0  0  0
    4.8671    0.8660    0.0000 C   0  0  0  0  0  0  0  0  0  0  0  0
   10.9292    1.3660    0.0000 C   0  0  0  0  0  0  0  0  0  0  0  0
    4.0010    1.3660    0.0000 C   0  0  0  0  0  0  0  0  0  0  0  0
   11.7953    0.8660    0.0000 C   0  0  0  0  0  0  0  0  0  0  0  0
    3.1350    0.8660    0.0000 C   0  0  0  0  0  0  0  0  0  0  0  0
   12.6613    1.3660    0.0000 C   0  0  0  0  0  0  0  0  0  0  0  0
  1 16  1  0
  1 17  1  0
  1 18  2  0
  1 19  2  0
 21  2  1  1
 27  2  1  1
 24  3  1  1
 32  3  1  6
  4 27  1  0
  4 38  1  0
 23  5  1  0
  6 32  1  0
  6 42  1  0
  7 44  1  0
  7 45  1  0
 29  8  1  6
  8 57  1  0
 33  9  1  0
  9 58  1  0
 37 10  1  6
 40 11  1  0
 41 12  1  6
 13 43  2  0
 14 45  2  0
 15 57  2  0
 16 71  1  0
 30 20  1  1
 20 54  1  0
 20 55  1  0
 21 22  1  0
 21 23  1  0
 22 24  1  0
 22 31  1  1
 23 25  1  0
 23 34  1  1
 24 26  1  0
 25 28  1  0
 26 45  1  0
 26 46  1  6
 27 29  1  0
 28 43  1  0
 28 47  1  6
 29 30  1  0
 30 36  1  0
 32 35  1  0
 33 35  1  0
 33 37  1  0
 33 48  1  1
 36 38  1  0
 37 42  1  0
 38 49  1  1
 39 41  1  0
 39 43  1  0
 39 50  1  6
 40 41  1  0
 40 44  1  0
 40 51  1  1
 42 53  1  1
 44 52  1  1
 52 56  1  0
 57 59  1  0
 59 60  1  0
 61 62  1  0
 61 63  1  0
 62 64  1  0
 63 65  1  0
 64 66  1  0
 65 67  1  0
 66 68  1  0
 67 69  1  0
 68 70  1  0
 69 71  1  0
 70 72  1  0
M  END
>  <Curated_InChIs>  (12) 
InChI=1S/C40H71NO14.C12H26O4S/c1-15-27-40(11,48)33(44)22(5)30(43)20(3)18-38(9,47)35(55-37-32(53-28(42)16-2)26(41(12)13)17-21(4)50-37)23(6)31(24(7)36(46)52-27)54-29-19-39(10,49-14)34(45)25(8)51-29;1-2-3-4-5-6-7-8-9-10-11-12-16-17(13,14)15/h20-27,29,31-35,37,44-45,47-48H,15-19H2,1-14H3;2-12H2,1H3,(H,13,14,15)

>  <PUBCHEM_IUPAC_NAME>  (12) 
[(2S,3R,4S,6R)-4-(dimethylamino)-2-[[(3R,4S,5S,6R,7R,9R,11R,12R,13S,14R)-14-ethyl-7,12,13-trihydroxy-4-[(2R,4R,5S,6S)-5-hydroxy-4-methoxy-4,6-dimethyloxan-2-yl]oxy-3,5,7,9,11,13-hexamethyl-2,10-dioxo-oxacyclotetradec-6-yl]oxy]-6-methyloxan-3-yl] propanoate;dodecyl hydrogen sulfate

>  <PUBCHEM_COMPOUND_CID>  (12) 
441371

>  <acvalue>  (12) 
3.0903

>  <Classification>  (12) 
1

>  <SMILES>  (12) 
CCC(=O)O[C@H]1[C@H](O[C@@H]2[C@@H](C)[C@H](O[C@H]3C[C@@](C)(OC)[C@@H](O)[C@H](C)O3)[C@@H](C)C(=O)O[C@H](CC)[C@@](C)(O)[C@H](O)[C@@H](C)C(=O)[C@H](C)C[C@@]2(C)O)O[C@H](C)C[C@@H]1N(C)C.CCCCCCCCCCCCOS(=O)(=O)O

>  <InChIKey>  (12) 
AWMFUEJKWXESNL-JZBHMOKNSA-N

$$$$
6857785
     RDKit          2D

 48 53  0  0  1  0  0  0  0  0999 V2000
   11.4875    1.5980    0.0000 O   0  0  0  0  0  0  0  0  0  0  0  0
   10.0776   -0.1693    0.0000 O   0  0  0  0  0  0  0  0  0  0  0  0
   14.0753    0.0628    0.0000 O   0  0  0  0  0  0  0  0  0  0  0  0
   10.0776   -2.9316    0.0000 O   0  0  0  0  0  0  0  0  0  0  0  0
    8.5513   -2.9316    0.0000 O   0  0  0  0  0  0  0  0  0  0  0  0
    6.9278   -0.0474    0.0000 O   0  0  0  0  0  0  0  0  0  0  0  0
   12.2669    3.3395    0.0000 O   0  0  0  0  0  0  0  0  0  0  0  0
   12.1871    1.6093    0.0000 O   0  0  0  0  0  0  0  0  0  0  0  0
   10.8407   -0.6099    0.0000 C   0  0  0  0  0  0  0  0  0  0  0  0
   11.6038   -0.1693    0.0000 C   0  0  0  0  0  0  0  0  0  0  0  0
   11.6245    0.5945    0.0000 C   0  0  0  0  0  0  0  0  0  0  0  0
   12.2512    0.8490    0.0000 C   0  0  0  0  0  0  0  0  0  0  0  0
   12.3670   -0.6099    0.0000 C   0  0  0  0  0  0  0  0  0  0  0  0
   12.3670   -1.4910    0.0000 C   0  0  0  0  0  0  0  0  0  0  0  0
   10.8407   -1.4910    0.0000 C   0  0  0  0  0  0  0  0  0  0  0  0
   13.1128   -0.2084    0.0000 C   0  0  0  0  0  0  0  0  0  0  0  0
   11.6038   -1.9316    0.0000 C   0  0  0  0  0  0  0  0  0  0  0  0
   10.6488    0.8133    0.0000 C   0  0  0  0  0  0  0  0  0  0  0  0
   12.9878    1.5253    0.0000 C   0  0  0  0  0  0  0  0  0  0  0  0
   13.2376    0.6849    0.0000 C   0  0  0  0  0  0  0  0  0  0  0  0
   10.0776   -1.9316    0.0000 C   0  0  0  0  0  0  0  0  0  0  0  0
    9.3144   -0.6099    0.0000 C   0  0  0  0  0  0  0  0  0  0  0  0
    9.3144   -1.4910    0.0000 C   0  0  0  0  0  0  0  0  0  0  0  0
   10.1892    1.7014    0.0000 C   0  0  0  0  0  0  0  0  0  0  0  0
    8.5513   -0.1693    0.0000 C   0  0  0  0  0  0  0  0  0  0  0  0
    8.5513   -1.9316    0.0000 C   0  0  0  0  0  0  0  0  0  0  0  0
   10.7286    2.5435    0.0000 C   0  0  0  0  0  0  0  0  0  0  0  0
    7.7882   -0.6099    0.0000 C   0  0  0  0  0  0  0  0  0  0  0  0
    7.7882   -1.4910    0.0000 C   0  0  0  0  0  0  0  0  0  0  0  0
    8.5513    0.8307    0.0000 C   0  0  0  0  0  0  0  0  0  0  0  0
   10.2690    3.4316    0.0000 C   0  0  0  0  0  0  0  0  0  0  0  0
    6.9278   -2.0535    0.0000 C   0  0  0  0  0  0  0  0  0  0  0  0
   11.7275    2.4974    0.0000 C   0  0  0  0  0  0  0  0  0  0  0  0
    6.0236   -0.5365    0.0000 C   0  0  0  0  0  0  0  0  0  0  0  0
    7.6852    1.3307    0.0000 C   0  0  0  0  0  0  0  0  0  0  0  0
    6.0236   -1.5644    0.0000 C   0  0  0  0  0  0  0  0  0  0  0  0
    5.0237   -0.5226    0.0000 C   0  0  0  0  0  0  0  0  0  0  0  0
    7.6853   -3.4316    0.0000 C   0  0  0  0  0  0  0  0  0  0  0  0
    5.5357    0.3364    0.0000 C   0  0  0  0  0  0  0  0  0  0  0  0
    7.6852    2.3307    0.0000 C   0  0  0  0  0  0  0  0  0  0  0  0
    4.5118   -1.3816    0.0000 C   0  0  0  0  0  0  0  0  0  0  0  0
    6.8192    2.8307    0.0000 C   0  0  0  0  0  0  0  0  0  0  0  0
    8.5513    2.8307    0.0000 C   0  0  0  0  0  0  0  0  0  0  0  0
   13.2658    3.2934    0.0000 C   0  0  0  0  0  0  0  0  0  0  0  0
    3.5118   -1.3678    0.0000 C   0  0  0  0  0  0  0  0  0  0  0  0
    2.9999   -2.2268    0.0000 C   0  0  0  0  0  0  0  0  0  0  0  0
    2.0000   -2.2129    0.0000 C   0  0  0  0  0  0  0  0  0  0  0  0
    3.4879   -3.0997    0.0000 C   0  0  0  0  0  0  0  0  0  0  0  0
  1 11  1  0
  1 12  1  0
  2  9  1  0
  2 22  1  0
  3 16  2  0
  4 21  2  0
  5 26  1  0
  5 38  1  0
  6 28  1  0
  6 34  1  0
  7 33  1  0
  7 44  1  0
  8 33  2  0
  9 10  1  0
  9 11  1  0
  9 15  1  0
 10 12  1  0
 10 13  1  0
 11 16  1  0
 11 18  1  0
 12 19  1  0
 12 20  1  0
 13 14  1  0
 14 16  1  0
 14 17  1  0
 15 17  2  0
 15 21  1  0
 18 24  1  0
 21 23  1  0
 22 23  2  0
 22 25  1  0
 23 26  1  0
 24 27  2  0
 25 28  2  0
 25 30  1  0
 26 29  2  0
 27 31  1  0
 27 33  1  0
 28 29  1  0
 29 32  1  0
 30 35  1  0
 32 36  2  0
 34 36  1  0
 34 37  1  0
 34 39  1  0
 35 40  2  3
 37 41  1  0
 40 42  1  0
 40 43  1  0
 41 45  1  0
 45 46  2  3
 46 47  1  0
 46 48  1  0
M  END
>  <Curated_InChIs>  (13) 
InChI=1S/C40H48O8/c1-22(2)12-11-17-38(8)18-16-27-32(46-38)26(14-13-23(3)4)34-30(33(27)44-9)31(41)28-20-25-21-29-37(6,7)48-39(35(25)42,40(28,29)47-34)19-15-24(5)36(43)45-10/h12-13,15-16,18,20,25,29H,11,14,17,19,21H2,1-10H3

>  <PUBCHEM_IUPAC_NAME>  (13) 
methyl (Z)-4-[12-methoxy-8,21,21-trimethyl-5-(3-methylbut-2-enyl)-8-(4-methylpent-3-enyl)-14,18-dioxo-3,7,20-trioxahexacyclo[15.4.1.02,15.02,19.04,13.06,11]docosa-4,6(11),9,12,15-pentaen-19-yl]-2-methylbut-2-enoate

>  <PUBCHEM_COMPOUND_CID>  (13) 
6857785

>  <acvalue>  (13) 
5.12861

>  <Classification>  (13) 
1

>  <SMILES>  (13) 
COC(=O)/C(C)=C\CC12OC(C)(C)C3CC(C=C4C(=O)c5c(OC)c6c(c(CC=C(C)C)c5OC431)OC(C)(CCC=C(C)C)C=C6)C2=O

>  <InChIKey>  (13) 
LFSCNWNADRUBLS-IWIPYMOSSA-N

$$$$
40469657
     RDKit          2D

 34 38  0  0  1  0  0  0  0  0999 V2000
    3.7320    0.1101    0.0000 O   0  0  0  0  0  0  0  0  0  0  0  0
    5.4148    3.3068    0.0000 O   0  0  0  0  0  0  0  0  0  0  0  0
    6.3422   -4.4592    0.0000 O   0  0  0  0  0  0  0  0  0  0  0  0
    3.6076    3.2470    0.0000 O   0  0  0  0  0  0  0  0  0  0  0  0
    8.3097    4.4592    0.0000 O   0  0  0  0  0  0  0  0  0  0  0  0
    2.8660   -1.3899    0.0000 O   0  0  0  0  0  0  0  0  0  0  0  0
    6.3301   -1.3899    0.0000 C   0  0  0  0  0  0  0  0  0  0  0  0
    6.3301   -0.3899    0.0000 C   0  0  0  0  0  0  0  0  0  0  0  0
    5.4641    0.1101    0.0000 C   0  0  0  0  0  0  0  0  0  0  0  0
    5.4641   -1.8899    0.0000 C   0  0  0  0  0  0  0  0  0  0  0  0
    4.5981   -0.3899    0.0000 C   0  0  0  0  0  0  0  0  0  0  0  0
    4.5981   -1.3899    0.0000 C   0  0  0  0  0  0  0  0  0  0  0  0
    7.2401    0.1169    0.0000 C   0  0  0  0  0  0  0  0  0  0  0  0
    5.4480   -2.9314    0.0000 C   0  0  0  0  0  0  0  0  0  0  0  0
    6.3461    1.6793    0.0000 C   0  0  0  0  0  0  0  0  0  0  0  0
    5.4480    1.1516    0.0000 C   0  0  0  0  0  0  0  0  0  0  0  0
    7.2401   -1.8968    0.0000 C   0  0  0  0  0  0  0  0  0  0  0  0
    7.2482    1.1585    0.0000 C   0  0  0  0  0  0  0  0  0  0  0  0
    7.1962   -0.8899    0.0000 C   0  0  0  0  0  0  0  0  0  0  0  0
    4.5981    0.6101    0.0000 C   0  0  0  0  0  0  0  0  0  0  0  0
    7.2482   -2.9384    0.0000 C   0  0  0  0  0  0  0  0  0  0  0  0
    6.3461   -3.4592    0.0000 C   0  0  0  0  0  0  0  0  0  0  0  0
    6.3544    2.7643    0.0000 C   0  0  0  0  0  0  0  0  0  0  0  0
    4.9381   -3.7916    0.0000 C   0  0  0  0  0  0  0  0  0  0  0  0
    4.4481   -2.9199    0.0000 C   0  0  0  0  0  0  0  0  0  0  0  0
    7.2082    2.1860    0.0000 C   0  0  0  0  0  0  0  0  0  0  0  0
    4.4961    1.6722    0.0000 C   0  0  0  0  0  0  0  0  0  0  0  0
    4.4794    2.7571    0.0000 C   0  0  0  0  0  0  0  0  0  0  0  0
    7.2224    3.2609    0.0000 C   0  0  0  0  0  0  0  0  0  0  0  0
    2.8660   -0.3899    0.0000 C   0  0  0  0  0  0  0  0  0  0  0  0
    8.1344    2.8507    0.0000 C   0  0  0  0  0  0  0  0  0  0  0  0
    7.3308    4.2550    0.0000 C   0  0  0  0  0  0  0  0  0  0  0  0
    2.0000    0.1101    0.0000 C   0  0  0  0  0  0  0  0  0  0  0  0
    8.8064    3.5912    0.0000 C   0  0  0  0  0  0  0  0  0  0  0  0
 11  1  1  1
  1 30  1  0
  2 23  1  0
  2 28  1  0
  3 22  2  0
  4 28  2  0
  5 32  1  0
  5 34  1  0
  6 30  2  0
  7  8  1  0
  7 10  1  0
  7 17  1  0
  7 19  1  6
  8  9  1  0
  8 13  1  6
  9 11  1  0
  9 16  1  0
  9 20  1  6
 10 12  1  6
 10 14  1  0
 11 12  1  0
 13 18  1  0
 14 22  1  0
 14 24  1  0
 14 25  1  0
 15 16  1  0
 15 18  1  0
 15 23  1  0
 15 26  1  1
 16 27  2  0
 17 21  1  0
 21 22  1  0
 23 29  1  1
 27 28  1  0
 29 31  1  0
 29 32  2  0
 30 33  1  0
 31 34  2  0
M  END
>  <Curated_InChIs>  (14) 
InChI=1S/C28H36O6/c1-16(29)33-22-13-19-25(2,3)21(30)8-11-26(19,4)18-7-10-27(5)20(28(18,22)6)14-23(31)34-24(27)17-9-12-32-15-17/h9,12,14-15,18-19,22,24H,7-8,10-11,13H2,1-6H3

>  <PUBCHEM_IUPAC_NAME>  (14) 
[(1R,4bR,5R,6aR,10aR,10bR,12aR)-1-(furan-3-yl)-4b,7,7,10a,12a-pentamethyl-3,8-dioxo-5,6,6a,9,10,10b,11,12-octahydro-1H-naphtho[2,1-f]isochromen-5-yl] acetate

>  <PUBCHEM_COMPOUND_CID>  (14) 
40469657

>  <acvalue>  (14) 
7.76247

>  <Classification>  (14) 
1

>  <SMILES>  (14) 
CC(=O)O[C@@H]1C[C@H]2C(C)(C)C(=O)CC[C@]2(C)[C@H]2CC[C@]3(C)C(=CC(=O)O[C@H]3c3ccoc3)[C@]12C

>  <InChIKey>  (14) 
QDBAUJQKYJXHPB-SQIPALKSSA-N

$$$$
11513676
     RDKit          2D

 86 86  0  0  1  0  0  0  0  0999 V2000
    8.3855   -5.6277    0.0000 O   0  0  0  0  0  0  0  0  0  0  0  0
    9.9992   -4.9728    0.0000 O   0  0  0  0  0  0  0  0  0  0  0  0
   13.1344   -3.3565    0.0000 O   0  0  0  0  0  0  0  0  0  0  0  0
   14.8981   -0.3017    0.0000 O   0  0  0  0  0  0  0  0  0  0  0  0
    6.4879   -4.6375    0.0000 O   0  0  0  0  0  0  0  0  0  0  0  0
    3.3931    4.3042    0.0000 O   0  0  0  0  0  0  0  0  0  0  0  0
    3.7152   -2.4571    0.0000 O   0  0  0  0  0  0  0  0  0  0  0  0
    2.5615    0.8763    0.0000 O   0  0  0  0  0  0  0  0  0  0  0  0
   14.7303    3.2216    0.0000 O   0  0  0  0  0  0  0  0  0  0  0  0
    5.9460    6.7383    0.0000 O   0  0  0  0  0  0  0  0  0  0  0  0
    9.4096    7.4058    0.0000 O   0  0  0  0  0  0  0  0  0  0  0  0
   12.6842    6.0949    0.0000 O   0  0  0  0  0  0  0  0  0  0  0  0
   11.6583   -3.2509    0.0000 N   0  0  0  0  0  0  0  0  0  0  0  0
    8.8145   -4.0859    0.0000 N   0  0  0  0  0  0  0  0  0  0  0  0
   13.5992   -1.0110    0.0000 N   0  0  0  0  0  0  0  0  0  0  0  0
   14.0210    1.9227    0.0000 N   0  0  0  0  0  0  0  0  0  0  0  0
    5.9707   -3.2509    0.0000 N   0  0  0  0  0  0  0  0  0  0  0  0
    3.6080    1.9227    0.0000 N   0  0  0  0  0  0  0  0  0  0  0  0
    4.0298   -1.0110    0.0000 N   0  0  0  0  0  0  0  0  0  0  0  0
    4.8392    4.6187    0.0000 N   0  0  0  0  0  0  0  0  0  0  0  0
    7.3326    6.2211    0.0000 N   0  0  0  0  0  0  0  0  0  0  0  0
   12.7898    4.6187    0.0000 N   0  0  0  0  0  0  0  0  0  0  0  0
   10.2964    6.2211    0.0000 N   0  0  0  0  0  0  0  0  0  0  0  0
   10.7695   -3.7091    0.0000 C   0  0  0  0  0  0  0  0  0  0  0  0
    7.8190   -3.9909    0.0000 C   0  0  0  0  0  0  0  0  0  0  0  0
   13.0992   -1.8770    0.0000 C   0  0  0  0  0  0  0  0  0  0  0  0
    7.6298   -4.9728    0.0000 C   0  0  0  0  0  0  0  0  0  0  0  0
   11.1411   -4.6375    0.0000 C   0  0  0  0  0  0  0  0  0  0  0  0
    6.9749   -5.7285    0.0000 C   0  0  0  0  0  0  0  0  0  0  0  0
   13.9138   -2.4571    0.0000 C   0  0  0  0  0  0  0  0  0  0  0  0
    9.8100   -3.9909    0.0000 C   0  0  0  0  0  0  0  0  0  0  0  0
   12.4443   -2.6328    0.0000 C   0  0  0  0  0  0  0  0  0  0  0  0
   14.0686    0.9238    0.0000 C   0  0  0  0  0  0  0  0  0  0  0  0
   14.9093   -2.5521    0.0000 C   0  0  0  0  0  0  0  0  0  0  0  0
   13.9263   -0.0660    0.0000 C   0  0  0  0  0  0  0  0  0  0  0  0
    6.8595   -3.7091    0.0000 C   0  0  0  0  0  0  0  0  0  0  0  0
   15.0675    0.8763    0.0000 C   0  0  0  0  0  0  0  0  0  0  0  0
    7.3020   -6.6736    0.0000 C   0  0  0  0  0  0  0  0  0  0  0  0
   12.1309   -4.7798    0.0000 C   0  0  0  0  0  0  0  0  0  0  0  0
   10.5230   -5.4236    0.0000 C   0  0  0  0  0  0  0  0  0  0  0  0
   12.1989   -4.0922    0.0000 C   0  0  0  0  0  0  0  0  0  0  0  0
   15.9563    1.3345    0.0000 C   0  0  0  0  0  0  0  0  0  0  0  0
    5.9930   -5.5393    0.0000 C   0  0  0  0  0  0  0  0  0  0  0  0
    8.8145   -5.0859    0.0000 C   0  0  0  0  0  0  0  0  0  0  0  0
    3.8437    2.8945    0.0000 C   0  0  0  0  0  0  0  0  0  0  0  0
    5.1846   -2.6328    0.0000 C   0  0  0  0  0  0  0  0  0  0  0  0
   14.5088   -1.4264    0.0000 C   0  0  0  0  0  0  0  0  0  0  0  0
    2.8987    3.2216    0.0000 C   0  0  0  0  0  0  0  0  0  0  0  0
   15.3247   -3.4618    0.0000 C   0  0  0  0  0  0  0  0  0  0  0  0
   15.4893   -1.7375    0.0000 C   0  0  0  0  0  0  0  0  0  0  0  0
    5.5630    5.3088    0.0000 C   0  0  0  0  0  0  0  0  0  0  0  0
    3.7027   -0.0660    0.0000 C   0  0  0  0  0  0  0  0  0  0  0  0
    4.9448    6.0949    0.0000 C   0  0  0  0  0  0  0  0  0  0  0  0
    8.3145    6.4104    0.0000 C   0  0  0  0  0  0  0  0  0  0  0  0
    4.2592    3.8042    0.0000 C   0  0  0  0  0  0  0  0  0  0  0  0
    4.5298   -1.8770    0.0000 C   0  0  0  0  0  0  0  0  0  0  0  0
    4.4946   -3.3565    0.0000 C   0  0  0  0  0  0  0  0  0  0  0  0
    3.5604    0.9238    0.0000 C   0  0  0  0  0  0  0  0  0  0  0  0
    8.2194    7.4058    0.0000 C   0  0  0  0  0  0  0  0  0  0  0  0
   13.7853    2.8945    0.0000 C   0  0  0  0  0  0  0  0  0  0  0  0
    6.4042    5.8494    0.0000 C   0  0  0  0  0  0  0  0  0  0  0  0
    6.6471   -7.4293    0.0000 C   0  0  0  0  0  0  0  0  0  0  0  0
   16.7975    0.7938    0.0000 C   0  0  0  0  0  0  0  0  0  0  0  0
   16.0039    2.3334    0.0000 C   0  0  0  0  0  0  0  0  0  0  0  0
    2.6182    2.0650    0.0000 C   0  0  0  0  0  0  0  0  0  0  0  0
   15.0108    2.0650    0.0000 C   0  0  0  0  0  0  0  0  0  0  0  0
   13.3698    3.8042    0.0000 C   0  0  0  0  0  0  0  0  0  0  0  0
    8.6348    8.3155    0.0000 C   0  0  0  0  0  0  0  0  0  0  0  0
    2.7095    4.2035    0.0000 C   0  0  0  0  0  0  0  0  0  0  0  0
    2.1430    2.5667    0.0000 C   0  0  0  0  0  0  0  0  0  0  0  0
    9.3145    6.4104    0.0000 C   0  0  0  0  0  0  0  0  0  0  0  0
    2.7309   -0.3017    0.0000 C   0  0  0  0  0  0  0  0  0  0  0  0
    3.9550    5.9525    0.0000 C   0  0  0  0  0  0  0  0  0  0  0  0
    5.3164    7.0232    0.0000 C   0  0  0  0  0  0  0  0  0  0  0  0
    3.1202   -1.4264    0.0000 C   0  0  0  0  0  0  0  0  0  0  0  0
    4.7763   -4.3160    0.0000 C   0  0  0  0  0  0  0  0  0  0  0  0
    7.0508    7.1806    0.0000 C   0  0  0  0  0  0  0  0  0  0  0  0
   11.2248    5.8494    0.0000 C   0  0  0  0  0  0  0  0  0  0  0  0
    2.0000    1.2790    0.0000 C   0  0  0  0  0  0  0  0  0  0  0  0
    6.9742   -8.3743    0.0000 C   0  0  0  0  0  0  0  0  0  0  0  0
   14.2359    4.3042    0.0000 C   0  0  0  0  0  0  0  0  0  0  0  0
    8.0548    9.1300    0.0000 C   0  0  0  0  0  0  0  0  0  0  0  0
    9.6303    8.4105    0.0000 C   0  0  0  0  0  0  0  0  0  0  0  0
   12.0660    5.3088    0.0000 C   0  0  0  0  0  0  0  0  0  0  0  0
   11.6830    6.7383    0.0000 C   0  0  0  0  0  0  0  0  0  0  0  0
    6.3193   -9.1300    0.0000 C   0  0  0  0  0  0  0  0  0  0  0  0
 27  1  1  6
  2 31  2  0
  3 32  2  0
  4 35  2  0
  5 36  2  0
  6 55  2  0
  7 56  2  0
  8 58  2  0
  9 60  2  0
 10 61  2  0
 11 71  2  0
 12 84  2  0
 13 24  1  0
 13 32  1  0
 13 41  1  0
 14 25  1  0
 14 31  1  0
 14 44  1  0
 15 26  1  0
 15 35  1  0
 15 47  1  0
 16 33  1  0
 16 60  1  0
 16 66  1  0
 17 36  1  0
 17 46  1  0
 18 45  1  0
 18 58  1  0
 18 65  1  0
 19 52  1  0
 19 56  1  0
 19 75  1  0
 20 51  1  0
 20 55  1  0
 21 54  1  0
 21 61  1  0
 21 77  1  0
 22 67  1  0
 22 84  1  0
 23 71  1  0
 23 78  1  0
 24 28  1  1
 24 31  1  0
 25 27  1  0
 25 36  1  1
 26 30  1  1
 26 32  1  0
 27 29  1  0
 28 39  1  0
 28 40  1  0
 29 38  1  0
 29 43  1  1
 30 34  1  0
 33 35  1  0
 33 37  1  1
 34 49  1  0
 34 50  1  0
 37 42  1  0
 38 62  1  0
 42 63  1  0
 42 64  1  0
 45 48  1  1
 45 55  1  0
 46 56  1  0
 46 57  1  1
 48 69  1  0
 48 70  1  0
 51 53  1  1
 51 61  1  0
 52 58  1  0
 52 72  1  6
 53 73  1  0
 53 74  1  0
 54 59  1  1
 54 71  1  0
 57 76  1  0
 59 68  1  0
 60 67  1  0
 62 80  2  0
 65 79  1  0
 67 81  1  6
 68 82  1  0
 68 83  1  0
 78 84  1  0
 78 85  1  1
 80 86  1  0
M  END
>  <Curated_InChIs>  (15) 
InChI=1S/C63H113N11O12/c1-26-29-30-40(16)52(75)51-56(79)66-44(27-2)59(82)68(20)43(19)58(81)74(28-3)49(38(12)13)55(78)67-48(37(10)11)62(85)69(21)45(31-34(4)5)54(77)64-41(17)53(76)65-42(18)57(80)70(22)46(32-35(6)7)60(83)71(23)47(33-36(8)9)61(84)72(24)50(39(14)15)63(86)73(51)25/h26,29,34-52,75H,27-28,30-33H2,1-25H3,(H,64,77)(H,65,76)(H,66,79)(H,67,78)

>  <PUBCHEM_IUPAC_NAME>  (15) 
(3S,6S,9S,12R,15S,18S,21S,24S,27R,30S,33S)-25,30-diethyl-33-[(E,1R,2R)-1-hydroxy-2-methylhex-4-enyl]-1,4,7,10,12,15,19,27,28-nonamethyl-6,9,18-tris(2-methylpropyl)-3,21,24-tri(propan-2-yl)-1,4,7,10,13,16,19,22,25,28,31-undecazacyclotritriacontane-2,5,8,11,14,17,20,23,26,29,32-undecone

>  <PUBCHEM_COMPOUND_CID>  (15) 
11513676

>  <acvalue>  (15) 
0.22

>  <Classification>  (15) 
1

>  <SMILES>  (15) 
C/C=C/C[C@@H](C)[C@@H](O)[C@H]1C(=O)N[C@@H](CC)C(=O)N(C)[C@H](C)C(=O)N(CC)[C@@H](C(C)C)C(=O)N[C@@H](C(C)C)C(=O)N(C)[C@@H](CC(C)C)C(=O)N[C@@H](C)C(=O)N[C@H](C)C(=O)N(C)[C@@H](CC(C)C)C(=O)N(C)[C@@H](CC(C)C)C(=O)N(C)[C@@H](C(C)C)C(=O)N1C

>  <InChIKey>  (15) 
OLROWHGDTNFZBH-XEMWPYQTSA-N

$$$$
5978
     RDKit          2D

 60 68  0  0  1  0  0  0  0  0999 V2000
    6.8102   -4.6227    0.0000 O   0  0  0  0  0  0  0  0  0  0  0  0
    8.0777   -2.6680    0.0000 O   0  0  0  0  0  0  0  0  0  0  0  0
    8.8208   -3.3371    0.0000 O   0  0  0  0  0  0  0  0  0  0  0  0
    8.6130   -4.3152    0.0000 O   0  0  0  0  0  0  0  0  0  0  0  0
    9.1574   -1.7535    0.0000 O   0  0  0  0  0  0  0  0  0  0  0  0
    8.1801    1.8223    0.0000 O   0  0  0  0  0  0  0  0  0  0  0  0
    8.0974   -5.7817    0.0000 O   0  0  0  0  0  0  0  0  0  0  0  0
    6.5287    0.5093    0.0000 O   0  0  0  0  0  0  0  0  0  0  0  0
    5.2439    0.5543    0.0000 O   0  0  0  0  0  0  0  0  0  0  0  0
    9.1930    5.7695    0.0000 O   0  0  0  0  0  0  0  0  0  0  0  0
    4.3838   -2.3940    0.0000 N   0  0  0  0  0  0  0  0  0  0  0  0
    7.4632   -1.3934    0.0000 N   0  0  0  0  0  0  0  0  0  0  0  0
    6.8864    5.0410    0.0000 N   0  0  0  0  0  0  0  0  0  0  0  0
    4.6681    1.8859    0.0000 N   0  0  0  0  0  0  0  0  0  0  0  0
    5.9235   -1.8937    0.0000 C   0  0  0  0  0  0  0  0  0  0  0  0
    5.2980   -2.5883    0.0000 C   0  0  0  0  0  0  0  0  0  0  0  0
    5.5869   -3.4773    0.0000 C   0  0  0  0  0  0  0  0  0  0  0  0
    6.8378   -2.0880    0.0000 C   0  0  0  0  0  0  0  0  0  0  0  0
    7.1266   -2.9770    0.0000 C   0  0  0  0  0  0  0  0  0  0  0  0
    5.5384   -0.8581    0.0000 C   0  0  0  0  0  0  0  0  0  0  0  0
    6.5012   -3.6716    0.0000 C   0  0  0  0  0  0  0  0  0  0  0  0
    6.2601   -0.3101    0.0000 C   0  0  0  0  0  0  0  0  0  0  0  0
    4.0949   -1.5050    0.0000 C   0  0  0  0  0  0  0  0  0  0  0  0
    5.8959   -4.4284    0.0000 C   0  0  0  0  0  0  0  0  0  0  0  0
    4.9614   -4.1719    0.0000 C   0  0  0  0  0  0  0  0  0  0  0  0
    7.1744   -0.5045    0.0000 C   0  0  0  0  0  0  0  0  0  0  0  0
    3.7583   -3.0886    0.0000 C   0  0  0  0  0  0  0  0  0  0  0  0
    4.0472   -3.9776    0.0000 C   0  0  0  0  0  0  0  0  0  0  0  0
    7.8698   -3.6462    0.0000 C   0  0  0  0  0  0  0  0  0  0  0  0
    5.9713    0.5788    0.0000 C   0  0  0  0  0  0  0  0  0  0  0  0
    5.2268   -5.1715    0.0000 C   0  0  0  0  0  0  0  0  0  0  0  0
    7.7998    0.1902    0.0000 C   0  0  0  0  0  0  0  0  0  0  0  0
    8.4143   -1.0844    0.0000 C   0  0  0  0  0  0  0  0  0  0  0  0
    6.5967    1.2735    0.0000 C   0  0  0  0  0  0  0  0  0  0  0  0
    7.5110    1.0791    0.0000 C   0  0  0  0  0  0  0  0  0  0  0  0
    6.2877    2.2245    0.0000 C   0  0  0  0  0  0  0  0  0  0  0  0
    7.1192   -5.5738    0.0000 C   0  0  0  0  0  0  0  0  0  0  0  0
    7.2388    2.5336    0.0000 C   0  0  0  0  0  0  0  0  0  0  0  0
    5.3605    2.5991    0.0000 C   0  0  0  0  0  0  0  0  0  0  0  0
    7.7687    3.3816    0.0000 C   0  0  0  0  0  0  0  0  0  0  0  0
    5.9131    1.2974    0.0000 C   0  0  0  0  0  0  0  0  0  0  0  0
    6.4501   -6.3169    0.0000 C   0  0  0  0  0  0  0  0  0  0  0  0
    9.5640   -4.0063    0.0000 C   0  0  0  0  0  0  0  0  0  0  0  0
    8.6440    3.9029    0.0000 C   0  0  0  0  0  0  0  0  0  0  0  0
    7.6295    4.3719    0.0000 C   0  0  0  0  0  0  0  0  0  0  0  0
    4.8910    3.4821    0.0000 C   0  0  0  0  0  0  0  0  0  0  0  0
    8.6631    4.9214    0.0000 C   0  0  0  0  0  0  0  0  0  0  0  0
    7.8080    5.4752    0.0000 C   0  0  0  0  0  0  0  0  0  0  0  0
    5.0990    4.4602    0.0000 C   0  0  0  0  0  0  0  0  0  0  0  0
    5.8870    5.0759    0.0000 C   0  0  0  0  0  0  0  0  0  0  0  0
    3.9125    3.3069    0.0000 C   0  0  0  0  0  0  0  0  0  0  0  0
    9.1583    1.6144    0.0000 C   0  0  0  0  0  0  0  0  0  0  0  0
    3.7750    2.3224    0.0000 C   0  0  0  0  0  0  0  0  0  0  0  0
    9.6625    4.8865    0.0000 C   0  0  0  0  0  0  0  0  0  0  0  0
    3.1059    3.9562    0.0000 C   0  0  0  0  0  0  0  0  0  0  0  0
    2.8214    1.9189    0.0000 C   0  0  0  0  0  0  0  0  0  0  0  0
   10.1924    5.7346    0.0000 C   0  0  0  0  0  0  0  0  0  0  0  0
    7.6676    0.6694    0.0000 C   0  0  0  0  0  0  0  0  0  0  0  0
    2.1432    3.5749    0.0000 C   0  0  0  0  0  0  0  0  0  0  0  0
    2.0000    2.5494    0.0000 C   0  0  0  0  0  0  0  0  0  0  0  0
 21  1  1  6
  1 37  1  0
 19  2  1  6
  3 29  1  0
  3 43  1  0
  4 29  2  0
  5 33  2  0
  6 35  1  0
  6 52  1  0
  7 37  2  0
  8 41  1  0
  8 58  1  0
  9 41  2  0
 47 10  1  1
 16 11  1  6
 11 23  1  0
 11 27  1  0
 18 12  1  1
 12 26  1  0
 12 33  1  0
 13 45  1  0
 13 48  1  0
 13 50  1  0
 14 39  1  0
 14 53  1  0
 15 16  1  0
 15 18  1  0
 15 20  1  6
 15 22  1  0
 16 17  1  0
 17 21  1  0
 17 24  1  1
 17 25  1  0
 18 19  1  0
 19 21  1  0
 19 29  1  0
 20 23  1  0
 22 26  2  0
 22 30  1  0
 24 31  1  0
 25 28  2  0
 26 32  1  0
 27 28  1  0
 30 34  2  0
 32 35  2  0
 34 35  1  0
 34 36  1  0
 36 38  1  0
 36 39  1  0
 36 41  1  1
 37 42  1  0
 40 38  1  6
 39 46  2  0
 40 44  1  0
 40 45  1  0
 44 47  1  0
 46 49  1  0
 46 51  1  0
 47 48  1  0
 47 54  1  0
 49 50  1  0
 51 53  2  0
 51 55  1  0
 53 56  1  0
 54 57  1  0
 55 59  2  0
 56 60  2  0
 59 60  1  0
M  END
>  <Curated_InChIs>  (16) 
InChI=1S/C46H56N4O10/c1-7-42(55)22-28-23-45(40(53)58-5,36-30(14-18-48(24-28)25-42)29-12-9-10-13-33(29)47-36)32-20-31-34(21-35(32)57-4)50(26-51)38-44(31)16-19-49-17-11-15-43(8-2,37(44)49)39(60-27(3)52)46(38,56)41(54)59-6/h9-13,15,20-21,26,28,37-39,47,55-56H,7-8,14,16-19,22-25H2,1-6H3

>  <PUBCHEM_IUPAC_NAME>  (16) 
methyl (1R,9R,10S,11R,12R,19R)-11-acetyloxy-12-ethyl-4-[(13S,15S,17S)-17-ethyl-17-hydroxy-13-methoxycarbonyl-1,11-diazatetracyclo[13.3.1.04,12.05,10]nonadeca-4(12),5,7,9-tetraen-13-yl]-8-formyl-10-hydroxy-5-methoxy-8,16-diazapentacyclo[10.6.1.01,9.02,7.016,19]nonadeca-2,4,6,13-tetraene-10-carboxylate

>  <PUBCHEM_COMPOUND_CID>  (16) 
5978

>  <acvalue>  (16) 
36.78

>  <Classification>  (16) 
0

>  <SMILES>  (16) 
CC[C@]1(O)C[C@H]2CN(CCc3c([nH]c4ccccc34)[C@@](C(=O)OC)(c3cc4c(cc3OC)N(C=O)[C@H]3[C@@](O)(C(=O)OC)[C@H](OC(C)=O)[C@]5(CC)C=CCN6CC[C@]43[C@@H]65)C2)C1

>  <InChIKey>  (16) 
OGWKCGZFUXNPDA-XQKSVPLYSA-N

$$$$
5351344
     RDKit          2D

 23 24  0  0  0  0  0  0  0  0999 V2000
    4.5981   -2.3100    0.0000 O   0  0  0  0  0  0  0  0  0  0  0  0
    2.8660   -1.3100    0.0000 O   0  0  0  0  0  0  0  0  0  0  0  0
    6.3301   -1.3100    0.0000 O   0  0  0  0  0  0  0  0  0  0  0  0
    8.9282    0.1900    0.0000 O   0  0  0  0  0  0  0  0  0  0  0  0
    8.9282    2.1900    0.0000 O   0  0  0  0  0  0  0  0  0  0  0  0
    4.5981    0.6900    0.0000 C   0  0  0  0  0  0  0  0  0  0  0  0
    4.5981   -1.3100    0.0000 C   0  0  0  0  0  0  0  0  0  0  0  0
    3.7320   -0.8100    0.0000 C   0  0  0  0  0  0  0  0  0  0  0  0
    5.4641   -0.8100    0.0000 C   0  0  0  0  0  0  0  0  0  0  0  0
    3.7320    0.1900    0.0000 C   0  0  0  0  0  0  0  0  0  0  0  0
    5.4641    0.1900    0.0000 C   0  0  0  0  0  0  0  0  0  0  0  0
    4.5981    1.6900    0.0000 C   0  0  0  0  0  0  0  0  0  0  0  0
    6.3301    1.6900    0.0000 C   0  0  0  0  0  0  0  0  0  0  0  0
    5.4641    2.1900    0.0000 C   0  0  0  0  0  0  0  0  0  0  0  0
    7.1962    2.1900    0.0000 C   0  0  0  0  0  0  0  0  0  0  0  0
    6.3301    0.6900    0.0000 C   0  0  0  0  0  0  0  0  0  0  0  0
    8.0622    1.6900    0.0000 C   0  0  0  0  0  0  0  0  0  0  0  0
    8.0622    0.6900    0.0000 C   0  0  0  0  0  0  0  0  0  0  0  0
    7.1962    0.1900    0.0000 C   0  0  0  0  0  0  0  0  0  0  0  0
    3.7320   -2.8100    0.0000 C   0  0  0  0  0  0  0  0  0  0  0  0
    2.0000   -0.8100    0.0000 C   0  0  0  0  0  0  0  0  0  0  0  0
    7.1962   -0.8100    0.0000 C   0  0  0  0  0  0  0  0  0  0  0  0
    9.7942    0.6900    0.0000 C   0  0  0  0  0  0  0  0  0  0  0  0
  1  7  1  0
  1 20  1  0
  2  8  1  0
  2 21  1  0
  3  9  1  0
  3 22  1  0
  4 18  1  0
  4 23  1  0
  5 17  1  0
  6 10  2  0
  6 11  1  0
  6 12  1  0
  7  8  2  0
  7  9  1  0
  8 10  1  0
  9 11  2  0
 12 14  2  0
 13 14  1  0
 13 15  2  0
 13 16  1  0
 15 17  1  0
 16 19  2  0
 17 18  2  0
 18 19  1  0
M  END
>  <Curated_InChIs>  (17) 
InChI=1S/C18H20O5/c1-20-15-8-7-12(9-14(15)19)5-6-13-10-16(21-2)18(23-4)17(11-13)22-3/h5-11,19H,1-4H3

>  <PUBCHEM_IUPAC_NAME>  (17) 
2-methoxy-5-[(Z)-2-(3,4,5-trimethoxyphenyl)ethenyl]phenol

>  <PUBCHEM_COMPOUND_CID>  (17) 
5351344

>  <acvalue>  (17) 
194.54

>  <Classification>  (17) 
0

>  <SMILES>  (17) 
COc1ccc(/C=C\c2cc(OC)c(OC)c(OC)c2)cc1O

>  <InChIKey>  (17) 
HVXBOLULGPECHP-WAYWQWQTSA-N

$$$$
