
     RDKit          2D

 29 31  0  0  0  0  0  0  0  0999 V2000
    7.5395   -1.3388    0.0000 C   0  0  0  0  0  0  0  0  0  0  0  0
    6.4990   -0.7409    0.0000 O   0  0  0  0  0  0  0  0  0  0  0  0
    5.2003   -1.4932    0.0000 C   0  0  0  0  0  0  0  0  0  0  0  0
    3.8990   -0.7455    0.0000 C   0  0  0  0  0  0  0  0  0  0  0  0
    2.6003   -1.4977    0.0000 O   0  0  0  0  0  0  0  0  0  0  0  0
    1.2990   -0.7500    0.0000 C   0  0  0  0  0  0  0  0  0  0  0  0
    1.2990    0.7500    0.0000 C   0  0  0  0  0  0  0  0  0  0  0  0
    0.0000    1.5000    0.0000 C   0  0  0  0  0  0  0  0  0  0  0  0
    0.0000    3.0000    0.0000 N   0  0  0  0  0  0  0  0  0  0  0  0
   -1.2991    3.7500    0.0000 C   0  0  0  0  0  0  0  0  0  0  0  0
   -2.5981    3.0000    0.0000 N   0  0  0  0  0  0  0  0  0  0  0  0
   -2.5981    1.5000    0.0000 C   0  0  0  0  0  0  0  0  0  0  0  0
   -3.8994    0.7522    0.0000 N   0  0  0  0  0  0  0  0  0  0  0  0
   -5.1981    1.5045    0.0000 C   0  0  0  0  0  0  0  0  0  0  0  0
   -6.4998    0.7590    0.0000 C   0  0  0  0  0  0  0  0  0  0  0  0
   -7.7962    1.5135    0.0000 C   0  0  0  0  0  0  0  0  0  0  0  0
   -7.7910    3.0135    0.0000 C   0  0  0  0  0  0  0  0  0  0  0  0
   -6.4894    3.7590    0.0000 C   0  0  0  0  0  0  0  0  0  0  0  0
   -5.1930    3.0045    0.0000 C   0  0  0  0  0  0  0  0  0  0  0  0
   -6.4842    5.2598    0.0000 C   0  0  0  0  0  0  0  0  0  0  0  0
   -6.4801    6.4598    0.0000 C   0  0  0  0  0  0  0  0  0  0  0  0
   -1.2990    0.7500    0.0000 C   0  0  0  0  0  0  0  0  0  0  0  0
   -1.2990   -0.7500    0.0000 C   0  0  0  0  0  0  0  0  0  0  0  0
    0.0000   -1.5000    0.0000 C   0  0  0  0  0  0  0  0  0  0  0  0
   -0.0031   -3.0008    0.0000 O   0  0  0  0  0  0  0  0  0  0  0  0
   -1.3039   -3.7494    0.0000 C   0  0  0  0  0  0  0  0  0  0  0  0
   -1.3070   -5.2502    0.0000 C   0  0  0  0  0  0  0  0  0  0  0  0
   -2.6078   -5.9988    0.0000 O   0  0  0  0  0  0  0  0  0  0  0  0
   -2.6103   -7.1988    0.0000 C   0  0  0  0  0  0  0  0  0  0  0  0
  1  2  1  0
  2  3  1  0
  3  4  1  0
  4  5  1  0
  5  6  1  0
  6  7  2  0
  7  8  1  0
  8  9  2  0
  9 10  1  0
 10 11  2  0
 11 12  1  0
 12 13  1  0
 13 14  1  0
 14 15  2  0
 15 16  1  0
 16 17  2  0
 17 18  1  0
 18 19  2  0
 19 14  1  0
 18 20  1  0
 20 21  3  0
 12 22  2  0
 22  8  1  0
 22 23  1  0
 23 24  2  0
 24  6  1  0
 24 25  1  0
 25 26  1  0
 26 27  1  0
 27 28  1  0
 28 29  1  0
M  END
>  <Curated_InChIs>  (1) 
InChI=1S/C22H23N3O4/c1-4-16-6-5-7-17(12-16)25-22-18-13-20(28-10-8-26-2)21(29-11-9-27-3)14-19(18)23-15-24-22/h1,5-7,12-15H,8-11H2,2-3H3,(H,23,24,25)

>  <threshold>  (1) 
5

>  <pchembl>  (1) 
4.58

>  <Classification>  (1) 
0

>  <source>  (1) 
chembl_28

>  <SMILES>  (1) 
C#Cc1cccc(Nc2ncnc3cc(OCCOC)c(OCCOC)cc23)c1

>  <InChIKey>  (1) 
AAKJLRGGTJKAMG-UHFFFAOYSA-N

$$$$

     RDKit          2D

 31 32  0  0  0  0  0  0  0  0999 V2000
    6.0042   -0.8792    0.0000 N   0  0  0  0  0  0  0  0  0  0  0  0
    4.9917   -0.8542    0.0000 C   0  0  0  0  0  0  0  0  0  0  0  0
    3.6542   -0.2000    0.0000 O   0  0  0  0  0  0  0  0  0  0  0  0
    4.4792   -0.2000    0.0000 C   0  0  0  0  0  0  0  0  0  0  0  0
    2.9417   -0.9167    0.0000 C   0  0  0  0  0  0  0  0  0  0  0  0
    5.9917   -2.6042    0.0000 C   0  0  0  0  0  0  0  0  0  0  0  0
    4.4042   -3.4167    0.0000 C   0  0  0  0  0  0  0  0  0  0  0  0
    4.8417   -2.6042    0.0000 C   0  0  0  0  0  0  0  0  0  0  0  0
    3.4792   -3.4125    0.0000 C   0  0  0  0  0  0  0  0  0  0  0  0
    1.9542   -1.1750    0.0000 C   0  0  0  0  0  0  0  0  0  0  0  0
    2.9292   -2.4417    0.0000 O   0  0  0  0  0  0  0  0  0  0  0  0
    4.4042   -1.4375    0.0000 O   0  0  0  0  0  0  0  0  0  0  0  0
    6.5792   -3.1875    0.0000 C   0  0  0  0  0  0  0  0  0  0  0  0
    1.9542   -2.1875    0.0000 C   0  0  0  0  0  0  0  0  0  0  0  0
    3.8042   -1.4167    0.0000 O   0  0  0  0  0  0  0  0  0  0  0  0
    3.0542   -4.1167    0.0000 O   0  0  0  0  0  0  0  0  0  0  0  0
    4.7042    0.5958    0.0000 C   0  0  0  0  0  0  0  0  0  0  0  0
    6.6667   -0.3667    0.0000 C   0  0  0  0  0  0  0  0  0  0  0  0
    4.1167   -2.1917    0.0000 O   0  0  0  0  0  0  0  0  0  0  0  0
    3.3167   -2.4042    0.0000 C   0  0  0  0  0  0  0  0  0  0  0  0
    7.3792   -2.9750    0.0000 C   0  0  0  0  0  0  0  0  0  0  0  0
    3.1042   -1.6042    0.0000 O   0  0  0  0  0  0  0  0  0  0  0  0
    1.1542   -0.5500    0.0000 C   0  0  0  0  0  0  0  0  0  0  0  0
    5.5042    0.7958    0.0000 C   0  0  0  0  0  0  0  0  0  0  0  0
    4.1292    1.2000    0.0000 C   0  0  0  0  0  0  0  0  0  0  0  0
    7.5792   -2.1792    0.0000 C   0  0  0  0  0  0  0  0  0  0  0  0
    7.9542   -3.5625    0.0000 C   0  0  0  0  0  0  0  0  0  0  0  0
    2.3042   -1.3875    0.0000 C   0  0  0  0  0  0  0  0  0  0  0  0
    8.7542   -3.3500    0.0000 C   0  0  0  0  0  0  0  0  0  0  0  0
    8.3792   -1.9667    0.0000 C   0  0  0  0  0  0  0  0  0  0  0  0
    8.9667   -2.5542    0.0000 C   0  0  0  0  0  0  0  0  0  0  0  0
  2  1  1  0
  3  4  1  0
  4  2  1  0
  5  3  1  0
  6  1  1  0
  7  8  1  0
  8  6  1  0
  9  7  1  0
 10  5  1  0
 11  9  1  0
 12  2  2  0
  6 13  1  1
 14 11  1  0
 15  5  2  0
 16  9  2  0
  4 17  1  1
 18  1  1  0
  8 19  1  1
 20 19  1  0
 21 13  1  0
 22 20  1  0
 10 23  1  6
 24 17  1  0
 25 17  1  0
 26 21  2  0
 27 21  1  0
 28 22  1  0
 29 27  2  0
 30 26  1  0
 31 29  1  0
 30 31  2  0
 14 10  1  0
M  END
>  <Curated_InChIs>  (2) 
InChI=1S/C23H33NO7/c1-15(2)21-22(26)24(4)18(11-17-9-7-6-8-10-17)19(30-14-28-5)12-20(25)29-13-16(3)23(27)31-21/h6-10,15-16,18-19,21H,11-14H2,1-5H3

>  <threshold>  (2) 
5

>  <pchembl>  (2) 
4.98

>  <Classification>  (2) 
0

>  <source>  (2) 
chembl_28

>  <SMILES>  (2) 
COCO[C@@H]1CC(=O)OC[C@H](C)C(=O)O[C@@H](C(C)C)C(=O)N(C)[C@H]1Cc1ccccc1

>  <InChIKey>  (2) 
ABJHZTBPBIEJNR-ROPHOZQPSA-N

$$$$

     RDKit          2D

 24 27  0  0  0  0  0  0  0  0999 V2000
   -1.0028   -1.5132    0.0000 C   0  0  0  0  0  0  0  0  0  0  0  0
   -1.0028    1.5132    0.0000 C   0  0  0  0  0  0  0  0  0  0  0  0
   -2.3155    0.7475    0.0000 C   0  0  0  0  0  0  0  0  0  0  0  0
   -2.3155   -0.7475    0.0000 C   0  0  0  0  0  0  0  0  0  0  0  0
   -3.6217    1.4865    0.0000 O   0  0  0  0  0  0  0  0  0  0  0  0
   -4.9153    0.7255    0.0000 C   0  0  0  0  0  0  0  0  0  0  0  0
   -6.2216    1.4644    0.0000 C   0  0  0  0  0  0  0  0  0  0  0  0
   -7.5156    0.7056    0.0000 C   0  0  0  0  0  0  0  0  0  0  0  0
   -8.8197    1.4467    0.0000 C   0  0  0  0  0  0  0  0  0  0  0  0
   -8.8299    2.9467    0.0000 C   0  0  0  0  0  0  0  0  0  0  0  0
   -7.5360    3.7055    0.0000 N   0  0  0  0  0  0  0  0  0  0  0  0
   -6.2319    2.9644    0.0000 C   0  0  0  0  0  0  0  0  0  0  0  0
   -7.5054   -0.7951    0.0000 C   0  0  0  0  0  0  0  0  0  0  0  0
   -6.2025   -1.5385    0.0000 C   0  0  0  0  0  0  0  0  0  0  0  0
   -6.1947   -3.0384    0.0000 C   0  0  0  0  0  0  0  0  0  0  0  0
   -7.4898   -3.7952    0.0000 C   0  0  0  0  0  0  0  0  0  0  0  0
   -8.7927   -3.0520    0.0000 C   0  0  0  0  0  0  0  0  0  0  0  0
   -8.8005   -1.5520    0.0000 C   0  0  0  0  0  0  0  0  0  0  0  0
    0.2917    0.7475    0.0000 C   0  0  0  0  0  0  0  0  0  0  0  0
    0.2917   -0.7475    0.0000 C   0  0  0  0  0  0  0  0  0  0  0  0
    1.7138   -1.2033    0.0000 O   0  0  0  0  0  0  0  0  0  0  0  0
    2.5889    0.0182    0.0000 C   0  0  0  0  0  0  0  0  0  0  0  0
    1.7138    1.2033    0.0000 O   0  0  0  0  0  0  0  0  0  0  0  0
   -7.4835   -4.9952    0.0000 F   0  0  0  0  0  0  0  0  0  0  0  0
  1 20  2  0
 19  2  2  0
  2  3  1  0
  3  4  2  0
  4  1  1  0
  3  5  1  0
  5  6  1  0
  7  6  1  1
  7  8  1  0
  7 12  1  0
  8  9  1  0
  9 10  1  0
 10 11  1  0
 11 12  1  0
 13 14  2  0
 14 15  1  0
 15 16  2  0
 16 17  1  0
 17 18  2  0
 18 13  1  0
  8 13  1  6
 19 20  1  0
 20 21  1  0
 21 22  1  0
 22 23  1  0
 23 19  1  0
 16 24  1  0
M  END
>  <Curated_InChIs>  (3) 
InChI=1S/C19H20FNO3/c20-15-3-1-13(2-4-15)17-7-8-21-10-14(17)11-22-16-5-6-18-19(9-16)24-12-23-18/h1-6,9,14,17,21H,7-8,10-12H2

>  <threshold>  (3) 
5

>  <pchembl>  (3) 
4.53

>  <Classification>  (3) 
0

>  <source>  (3) 
chembl_28

>  <SMILES>  (3) 
Fc1ccc([C@@H]2CCNC[C@H]2COc2ccc3c(c2)OCO3)cc1

>  <InChIKey>  (3) 
AHOUBRCZNHFOSL-YOEHRIQHSA-N

$$$$

     RDKit          2D

 37 43  0  0  0  0  0  0  0  0999 V2000
    2.1266   -8.7274    0.0000 C   0  0  0  0  0  0  0  0  0  0  0  0
    2.8396   -7.4872    0.0000 C   0  0  0  0  0  0  0  0  0  0  0  0
    3.5550   -7.8964    0.0000 C   0  0  0  0  0  0  0  0  0  0  0  0
    3.5584   -8.7294    0.0000 C   0  0  0  0  0  0  0  0  0  0  0  0
    4.2776   -9.1407    0.0000 Te  0  0  0  0  0  2  0  0  0  0  0  0
    4.2707   -7.4746    0.0000 C   0  0  0  0  0  0  0  0  0  0  0  0
    4.9945   -7.8905    0.0000 C   0  0  0  0  0  0  0  0  0  0  0  0
    4.9974   -8.7274    0.0000 C   0  0  0  0  0  0  0  0  0  0  0  0
    5.7225   -9.1416    0.0000 C   0  0  0  0  0  0  0  0  0  0  0  0
    6.4453   -8.7199    0.0000 C   0  0  0  0  0  0  0  0  0  0  0  0
    6.4383   -7.8798    0.0000 C   0  0  0  0  0  0  0  0  0  0  0  0
    5.7126   -7.4694    0.0000 C   0  0  0  0  0  0  0  0  0  0  0  0
    4.2662   -6.6496    0.0000 C   0  0  0  0  0  0  0  0  0  0  0  0
    7.1624   -9.1278    0.0000 N   0  0  0  0  0  0  0  0  0  0  0  0
    7.1676   -9.9528    0.0000 C   0  0  0  0  0  0  0  0  0  0  0  0
    7.8742   -8.7108    0.0000 C   0  0  0  0  0  0  0  0  0  0  0  0
    1.4118   -9.1393    0.0000 N   0  0  0  0  0  0  0  0  0  0  0  0
    0.6976   -8.7262    0.0000 C   0  0  0  0  0  0  0  0  0  0  0  0
    1.4111   -9.9643    0.0000 C   0  0  0  0  0  0  0  0  0  0  0  0
    4.9316   -6.1611    0.0000 S   0  0  0  0  0  0  0  0  0  0  0  0
    4.6724   -5.3779    0.0000 C   0  0  0  0  0  0  0  0  0  0  0  0
    3.8473   -5.3825    0.0000 C   0  0  0  0  0  0  0  0  0  0  0  0
    3.5968   -6.1685    0.0000 C   0  0  0  0  0  0  0  0  0  0  0  0
    5.1536   -4.7078    0.0000 C   0  0  0  0  0  0  0  0  0  0  0  0
    5.9688   -4.7878    0.0000 N   0  0  0  0  0  0  0  0  0  0  0  0
    4.8082   -3.9542    0.0000 S   0  0  0  0  0  0  0  0  0  0  0  0
    6.3035   -5.5361    0.0000 C   0  0  0  0  0  0  0  0  0  0  0  0
    7.1150   -5.6177    0.0000 C   0  0  0  0  0  0  0  0  0  0  0  0
    7.5954   -4.9539    0.0000 C   0  0  0  0  0  0  0  0  0  0  0  0
    7.2585   -4.2062    0.0000 C   0  0  0  0  0  0  0  0  0  0  0  0
    6.4411   -4.1224    0.0000 C   0  0  0  0  0  0  0  0  0  0  0  0
    0.6983   -7.9012    0.0000 C   0  0  0  0  0  0  0  0  0  0  0  0
    1.4131   -7.4893    0.0000 C   0  0  0  0  0  0  0  0  0  0  0  0
    2.1272   -7.9024    0.0000 C   0  0  0  0  0  0  0  0  0  0  0  0
    2.1253  -10.3774    0.0000 C   0  0  0  0  0  0  0  0  0  0  0  0
    2.8401   -9.9654    0.0000 C   0  0  0  0  0  0  0  0  0  0  0  0
    2.8407   -9.1404    0.0000 C   0  0  0  0  0  0  0  0  0  0  0  0
 17 19  1  0
 13 20  1  0
  7  8  1  0
  3  4  1  0
  8  9  2  0
 34  1  2  0
 20 21  1  0
 21 22  2  0
 22 23  1  0
 23 13  2  0
  9 10  1  0
 21 24  1  0
  1 37  1  0
 10 11  1  0
 24 25  1  0
 24 26  2  0
 25 27  1  0
 37  4  2  0
 11 12  2  0
 12  7  1  0
  6 13  1  0
 25 31  1  0
 27 28  1  0
 28 29  1  0
 29 30  1  0
 30 31  1  0
  3  6  1  0
 18 32  1  0
 10 14  2  3
 32 33  1  0
  4  5  1  0
 33 34  1  0
 14 15  1  0
 19 35  1  0
  5  8  1  0
 35 36  1  0
 14 16  1  0
 36 37  1  0
  7  6  2  0
  1 17  1  0
  3  2  2  0
 17 18  1  0
  2 34  1  0
M  CHG  1  14   1
M  END
>  <Curated_InChIs>  (4) 
InChI=1S/C31H34N3S2Te/c1-32(2)21-10-11-22-27(19-21)37-30-23-9-7-17-33-16-6-8-20(29(23)33)18-24(30)28(22)25-12-13-26(36-25)31(35)34-14-4-3-5-15-34/h10-13,18-19H,3-9,14-17H2,1-2H3

>  <threshold>  (4) 
5

>  <pchembl>  (4) 
4.85

>  <Classification>  (4) 
0

>  <source>  (4) 
chembl_28

>  <SMILES>  (4) 
C[N+](C)=c1ccc2c(-c3ccc(C(=S)N4CCCCC4)s3)c3cc4c5c(c3[te]c-2c1)CCCN5CCC4

>  <InChIKey>  (4) 
AJWGVAJMXQHMFI-UHFFFAOYSA-N

$$$$

     RDKit          2D

 25 26  0  0  0  0  0  0  0  0999 V2000
    1.2990   -0.7500    0.0000 C   0  0  0  0  0  0  0  0  0  0  0  0
    2.5973   -1.5031    0.0000 C   0  0  0  0  0  0  0  0  0  0  0  0
    2.5951   -3.0039    0.0000 N   0  0  0  0  0  0  0  0  0  0  0  0
    3.8933   -3.7570    0.0000 N   0  0  0  0  0  0  0  0  0  0  0  0
    3.8912   -5.2578    0.0000 C   0  0  0  0  0  0  0  0  0  0  0  0
    5.1894   -6.0109    0.0000 C   0  0  0  0  0  0  0  0  0  0  0  0
    2.8509   -5.8560    0.0000 O   0  0  0  0  0  0  0  0  0  0  0  0
    3.6375   -0.9049    0.0000 O   0  0  0  0  0  0  0  0  0  0  0  0
    1.2956   -3.7547    0.0000 C   0  0  0  0  0  0  0  0  0  0  0  0
    1.2952   -4.9547    0.0000 C   0  0  0  0  0  0  0  0  0  0  0  0
    0.2563   -4.3546    0.0000 C   0  0  0  0  0  0  0  0  0  0  0  0
    0.2564   -3.1547    0.0000 C   0  0  0  0  0  0  0  0  0  0  0  0
    1.2990    0.7500    0.0000 C   0  0  0  0  0  0  0  0  0  0  0  0
    0.0000    1.5000    0.0000 C   0  0  0  0  0  0  0  0  0  0  0  0
   -1.2990    0.7500    0.0000 C   0  0  0  0  0  0  0  0  0  0  0  0
   -1.2990   -0.7500    0.0000 C   0  0  0  0  0  0  0  0  0  0  0  0
    0.0000   -1.5000    0.0000 C   0  0  0  0  0  0  0  0  0  0  0  0
    6.4886   -5.2610    0.0000 C   0  0  0  0  0  0  0  0  0  0  0  0
    7.7876   -6.0110    0.0000 C   0  0  0  0  0  0  0  0  0  0  0  0
    7.7875   -7.5110    0.0000 C   0  0  0  0  0  0  0  0  0  0  0  0
    6.4885   -8.2610    0.0000 C   0  0  0  0  0  0  0  0  0  0  0  0
    5.1895   -7.5109    0.0000 C   0  0  0  0  0  0  0  0  0  0  0  0
    0.0000    2.7000    0.0000 C   0  0  0  0  0  0  0  0  0  0  0  0
   -2.3383   -1.3500    0.0000 C   0  0  0  0  0  0  0  0  0  0  0  0
    4.1502   -8.1109    0.0000 C   0  0  0  0  0  0  0  0  0  0  0  0
  1  2  1  0
  2  3  1  0
  3  4  1  0
  4  5  1  0
  5  6  1  0
  5  7  2  0
  2  8  2  0
  3  9  1  0
  9 10  1  0
  9 11  1  0
  9 12  1  0
  1 13  2  0
 13 14  1  0
 14 15  2  0
 15 16  1  0
 16 17  2  0
 17  1  1  0
  6 18  2  0
 18 19  1  0
 19 20  2  0
 20 21  1  0
 21 22  2  0
 22  6  1  0
 14 23  1  0
 16 24  1  0
 22 25  1  0
M  END
>  <Curated_InChIs>  (5) 
InChI=1S/C21H26N2O2/c1-14-11-15(2)13-17(12-14)20(25)23(21(4,5)6)22-19(24)18-10-8-7-9-16(18)3/h7-13H,1-6H3,(H,22,24)

>  <threshold>  (5) 
5

>  <pchembl>  (5) 
4.1

>  <Classification>  (5) 
0

>  <source>  (5) 
chembl_28

>  <SMILES>  (5) 
Cc1cc(C)cc(C(=O)N(NC(=O)c2ccccc2C)C(C)(C)C)c1

>  <InChIKey>  (5) 
ALNBMIQWXAVERV-UHFFFAOYSA-N

$$$$

     RDKit          2D

 32 35  0  0  0  0  0  0  0  0999 V2000
   -2.6111    0.7486    0.0000 C   0  0  0  0  0  0  0  0  0  0  0  0
   -2.6111   -0.7486    0.0000 C   0  0  0  0  0  0  0  0  0  0  0  0
   -1.2964   -1.4973    0.0000 C   0  0  0  0  0  0  0  0  0  0  0  0
    0.0000   -0.7486    0.0000 C   0  0  0  0  0  0  0  0  0  0  0  0
    1.2964   -1.4973    0.0000 C   0  0  0  0  0  0  0  0  0  0  0  0
    2.5929   -0.7486    0.0000 C   0  0  0  0  0  0  0  0  0  0  0  0
    2.5929    0.7486    0.0000 C   0  0  0  0  0  0  0  0  0  0  0  0
    1.2964    1.4973    0.0000 C   0  0  0  0  0  0  0  0  0  0  0  0
    0.0000    0.7486    0.0000 C   0  0  0  0  0  0  0  0  0  0  0  0
   -1.2964    1.4973    0.0000 O   0  0  0  0  0  0  0  0  0  0  0  0
   -1.2928   -2.6973    0.0000 O   0  0  0  0  0  0  0  0  0  0  0  0
    3.8911    1.5017    0.0000 O   0  0  0  0  0  0  0  0  0  0  0  0
    3.8894    2.7017    0.0000 C   0  0  0  0  0  0  0  0  0  0  0  0
    1.2995   -2.9981    0.0000 O   0  0  0  0  0  0  0  0  0  0  0  0
    2.3396   -3.5967    0.0000 C   0  0  0  0  0  0  0  0  0  0  0  0
   -3.9086    1.5029    0.0000 N   0  0  0  0  0  0  0  0  0  0  0  0
   -3.9097    3.0028    0.0000 C   0  0  0  0  0  0  0  0  0  0  0  0
   -5.2093    3.7519    0.0000 C   0  0  0  0  0  0  0  0  0  0  0  0
   -6.5078    3.0010    0.0000 N   0  0  0  0  0  0  0  0  0  0  0  0
   -6.5067    1.5010    0.0000 C   0  0  0  0  0  0  0  0  0  0  0  0
   -5.2071    0.7519    0.0000 C   0  0  0  0  0  0  0  0  0  0  0  0
   -7.8096    3.7478    0.0000 C   0  0  0  0  0  0  0  0  0  0  0  0
   -9.1077    2.9946    0.0000 C   0  0  0  0  0  0  0  0  0  0  0  0
  -10.4100    3.7391    0.0000 C   0  0  0  0  0  0  0  0  0  0  0  0
  -11.7059    2.9837    0.0000 C   0  0  0  0  0  0  0  0  0  0  0  0
  -11.6996    1.4837    0.0000 C   0  0  0  0  0  0  0  0  0  0  0  0
  -10.3975    0.7391    0.0000 C   0  0  0  0  0  0  0  0  0  0  0  0
   -9.1016    1.4945    0.0000 C   0  0  0  0  0  0  0  0  0  0  0  0
  -12.9962    0.7279    0.0000 C   0  0  0  0  0  0  0  0  0  0  0  0
  -14.0383    1.3229    0.0000 F   0  0  0  0  0  0  0  0  0  0  0  0
  -12.9909   -0.4721    0.0000 F   0  0  0  0  0  0  0  0  0  0  0  0
  -14.0327    0.1231    0.0000 F   0  0  0  0  0  0  0  0  0  0  0  0
  1  2  2  0
  2  3  1  0
  3  4  1  0
  4  5  2  0
  5  6  1  0
  6  7  2  0
  7  8  1  0
  8  9  2  0
  4  9  1  0
  9 10  1  0
  1 10  1  0
  3 11  2  0
 12 13  1  0
  7 12  1  0
 14 15  1  0
  5 14  1  0
 16 17  1  0
 17 18  1  0
 18 19  1  0
 19 20  1  0
 20 21  1  0
 16 21  1  0
 22 23  1  0
 23 24  2  0
 24 25  1  0
 25 26  2  0
 26 27  1  0
 27 28  2  0
 23 28  1  0
 19 22  1  0
  1 16  1  0
 29 30  1  0
 29 31  1  0
 29 32  1  0
 26 29  1  0
M  END
>  <Curated_InChIs>  (6) 
InChI=1S/C23H23F3N2O4/c1-30-17-11-19(31-2)22-18(29)13-21(32-20(22)12-17)28-9-7-27(8-10-28)14-15-3-5-16(6-4-15)23(24,25)26/h3-6,11-13H,7-10,14H2,1-2H3

>  <threshold>  (6) 
5

>  <pchembl>  (6) 
4.5

>  <Classification>  (6) 
0

>  <source>  (6) 
chembl_28

>  <SMILES>  (6) 
COc1cc(OC)c2c(=O)cc(N3CCN(Cc4ccc(C(F)(F)F)cc4)CC3)oc2c1

>  <InChIKey>  (6) 
ASDVBWDRBPIGEL-UHFFFAOYSA-N

$$$$

     RDKit          2D

 47 49  0  0  0  0  0  0  0  0999 V2000
   28.0156   -2.7240    0.0000 C   0  0  0  0  0  0  0  0  0  0  0  0
   27.6112   -3.4339    0.0000 C   0  0  0  0  0  0  0  0  0  0  0  0
   28.4282   -3.4292    0.0000 C   0  0  0  0  0  0  0  0  0  0  0  0
   25.6377   -4.2543    0.0000 C   0  0  0  0  0  0  0  0  0  0  0  0
   26.2129   -2.8555    0.0000 C   0  0  0  0  0  0  0  0  0  0  0  0
   26.2130   -4.8295    0.0000 C   0  0  0  0  0  0  0  0  0  0  0  0
   27.0325   -4.8295    0.0000 C   0  0  0  0  0  0  0  0  0  0  0  0
   27.6118   -4.2543    0.0000 C   0  0  0  0  0  0  0  0  0  0  0  0
   27.0325   -2.8554    0.0000 C   0  0  0  0  0  0  0  0  0  0  0  0
   22.9722   -3.2646    0.0000 C   0  0  0  0  0  0  0  0  0  0  0  0
   23.4591   -2.6059    0.0000 C   0  0  0  0  0  0  0  0  0  0  0  0
   23.4523   -3.9355    0.0000 C   0  0  0  0  0  0  0  0  0  0  0  0
   23.0480   -4.6462    0.0000 O   0  0  0  0  0  0  0  0  0  0  0  0
   23.8210   -2.1512    0.0000 O   0  0  0  0  0  0  0  0  0  0  0  0
   24.2386   -3.6807    0.0000 C   0  0  0  0  0  0  0  0  0  0  0  0
   24.2387   -2.8610    0.0000 C   0  0  0  0  0  0  0  0  0  0  0  0
   24.8152   -2.2844    0.0000 C   0  0  0  0  0  0  0  0  0  0  0  0
   24.8154   -4.2573    0.0000 C   0  0  0  0  0  0  0  0  0  0  0  0
   26.2116   -3.6806    0.0000 C   0  0  0  0  0  0  0  0  0  0  0  0
   25.6349   -2.2843    0.0000 C   0  0  0  0  0  0  0  0  0  0  0  0
   24.5024   -1.5294    0.0000 O   0  0  0  0  0  0  0  0  0  0  0  0
   25.9476   -1.5293    0.0000 C   0  0  0  0  0  0  0  0  0  0  0  0
   28.3664   -4.5681    0.0000 O   0  0  0  0  0  0  0  0  0  0  0  0
   25.9003   -5.5845    0.0000 O   0  0  0  0  0  0  0  0  0  0  0  0
   26.3121   -6.2905    0.0000 C   0  0  0  0  0  0  0  0  0  0  0  0
   25.9068   -7.0002    0.0000 C   0  0  0  0  0  0  0  0  0  0  0  0
   27.1293   -6.2867    0.0000 O   0  0  0  0  0  0  0  0  0  0  0  0
   27.4514   -5.5307    0.0000 O   0  0  0  0  0  0  0  0  0  0  0  0
   22.2309   -4.6517    0.0000 C   0  0  0  0  0  0  0  0  0  0  0  0
   24.5040   -5.0129    0.0000 O   0  0  0  0  0  0  0  0  0  0  0  0
   24.4992   -5.8276    0.0000 C   0  0  0  0  0  0  0  0  0  0  0  0
   25.2045   -6.2404    0.0000 O   0  0  0  0  0  0  0  0  0  0  0  0
   23.7891   -6.2320    0.0000 C   0  0  0  0  0  0  0  0  0  0  0  0
   22.1550   -3.2584    0.0000 C   0  0  0  0  0  0  0  0  0  0  0  0
   28.2685   -5.5186    0.0000 C   0  0  0  0  0  0  0  0  0  0  0  0
   28.6875   -6.2202    0.0000 C   0  0  0  0  0  0  0  0  0  0  0  0
   28.6665   -4.8049    0.0000 O   0  0  0  0  0  0  0  0  0  0  0  0
   25.0889   -7.0010    0.0000 C   0  0  0  0  0  0  0  0  0  0  0  0
   24.6837   -7.7098    0.0000 C   0  0  0  0  0  0  0  0  0  0  0  0
   25.0957   -8.4166    0.0000 C   0  0  0  0  0  0  0  0  0  0  0  0
   25.9171   -8.4101    0.0000 C   0  0  0  0  0  0  0  0  0  0  0  0
   26.3186   -7.7008    0.0000 C   0  0  0  0  0  0  0  0  0  0  0  0
   21.8175   -3.9468    0.0000 O   0  0  0  0  0  0  0  0  0  0  0  0
   21.8271   -5.3622    0.0000 C   0  0  0  0  0  0  0  0  0  0  0  0
   21.0099   -5.3677    0.0000 C   0  0  0  0  0  0  0  0  0  0  0  0
   20.6061   -6.0782    0.0000 C   0  0  0  0  0  0  0  0  0  0  0  0
   20.5965   -4.6628    0.0000 O   0  0  0  0  0  0  0  0  0  0  0  0
  2  1  1  0
  3  2  1  0
  4  6  1  0
  6  7  1  0
  7  8  1  0
  8  2  1  0
  2  9  1  0
  9  5  2  0
 16 11  1  0
 11 10  1  0
 10 12  1  0
 12 15  1  0
 12 13  1  1
 16 14  1  1
 15 16  1  0
 16 17  1  0
 15 18  1  1
 18  4  1  0
  4 19  2  0
  5 20  1  0
 20 17  1  0
 17 21  2  0
 20 22  1  1
  8 23  2  0
  6 24  1  1
 24 25  1  0
 25 26  1  0
 25 27  2  0
  7 28  1  6
 13 29  1  0
 18 30  1  6
 30 31  1  0
 31 32  2  0
 31 33  1  0
 10 34  1  1
 28 35  1  0
 35 36  1  0
 35 37  2  0
 26 38  2  0
 38 39  1  0
 39 40  2  0
 40 41  1  0
 41 42  2  0
 42 26  1  0
 29 43  2  0
 29 44  1  0
 44 45  1  0
 45 46  1  0
 45 47  2  0
M  END
>  <Curated_InChIs>  (7) 
InChI=1S/C35H42O12/c1-18-14-15-34(7,8)32(41)30(45-23(6)38)29(47-33(42)24-12-10-9-11-13-24)21(4)28(44-22(5)37)26-27(46-25(39)16-20(3)36)19(2)17-35(26,43)31(18)40/h9-15,18-19,26-30,43H,4,16-17H2,1-3,5-8H3

>  <threshold>  (7) 
5

>  <pchembl>  (7) 
4.99

>  <Classification>  (7) 
0

>  <source>  (7) 
chembl_28

>  <SMILES>  (7) 
C=C1[C@H](OC(=O)c2ccccc2)[C@@H](OC(C)=O)C(=O)C(C)(C)/C=C/[C@H](C)C(=O)[C@@]2(O)C[C@H](C)[C@H](OC(=O)CC(C)=O)[C@@H]2[C@H]1OC(C)=O

>  <InChIKey>  (7) 
BHILJQBIKNCKTO-AFHQABNTSA-N

$$$$

     RDKit          2D

 50 53  0  0  0  0  0  0  0  0999 V2000
    8.5805  -12.0061    0.0000 C   0  0  0  0  0  0  0  0  0  0  0  0
    8.1760  -12.7160    0.0000 C   0  0  0  0  0  0  0  0  0  0  0  0
    8.9931  -12.7113    0.0000 C   0  0  0  0  0  0  0  0  0  0  0  0
    6.2026  -13.5365    0.0000 C   0  0  0  0  0  0  0  0  0  0  0  0
    6.7777  -12.1376    0.0000 C   0  0  0  0  0  0  0  0  0  0  0  0
    6.7778  -14.1117    0.0000 C   0  0  0  0  0  0  0  0  0  0  0  0
    7.5974  -14.1117    0.0000 C   0  0  0  0  0  0  0  0  0  0  0  0
    8.1767  -13.5365    0.0000 C   0  0  0  0  0  0  0  0  0  0  0  0
    7.5974  -12.1375    0.0000 C   0  0  0  0  0  0  0  0  0  0  0  0
    3.5370  -12.5468    0.0000 C   0  0  0  0  0  0  0  0  0  0  0  0
    4.0239  -11.8881    0.0000 C   0  0  0  0  0  0  0  0  0  0  0  0
    4.0172  -13.2176    0.0000 C   0  0  0  0  0  0  0  0  0  0  0  0
    3.6129  -13.9283    0.0000 O   0  0  0  0  0  0  0  0  0  0  0  0
    4.3859  -11.4334    0.0000 O   0  0  0  0  0  0  0  0  0  0  0  0
    4.8034  -12.9628    0.0000 C   0  0  0  0  0  0  0  0  0  0  0  0
    4.8035  -12.1431    0.0000 C   0  0  0  0  0  0  0  0  0  0  0  0
    5.3801  -11.5665    0.0000 C   0  0  0  0  0  0  0  0  0  0  0  0
    5.3802  -13.5395    0.0000 C   0  0  0  0  0  0  0  0  0  0  0  0
    6.7765  -12.9628    0.0000 C   0  0  0  0  0  0  0  0  0  0  0  0
    6.1998  -11.5664    0.0000 C   0  0  0  0  0  0  0  0  0  0  0  0
    6.5125  -10.8114    0.0000 C   0  0  0  0  0  0  0  0  0  0  0  0
    8.9313  -13.8503    0.0000 O   0  0  0  0  0  0  0  0  0  0  0  0
    6.4651  -14.8667    0.0000 O   0  0  0  0  0  0  0  0  0  0  0  0
    6.8770  -15.5727    0.0000 C   0  0  0  0  0  0  0  0  0  0  0  0
    6.4717  -16.2823    0.0000 C   0  0  0  0  0  0  0  0  0  0  0  0
    7.6942  -15.5689    0.0000 O   0  0  0  0  0  0  0  0  0  0  0  0
    8.0163  -14.8129    0.0000 O   0  0  0  0  0  0  0  0  0  0  0  0
    8.8334  -14.8011    0.0000 C   0  0  0  0  0  0  0  0  0  0  0  0
    9.2522  -15.5028    0.0000 C   0  0  0  0  0  0  0  0  0  0  0  0
    9.2317  -14.0875    0.0000 O   0  0  0  0  0  0  0  0  0  0  0  0
    2.7957  -13.9339    0.0000 C   0  0  0  0  0  0  0  0  0  0  0  0
    2.3920  -14.6443    0.0000 C   0  0  0  0  0  0  0  0  0  0  0  0
    2.3824  -13.2289    0.0000 O   0  0  0  0  0  0  0  0  0  0  0  0
    1.5766  -14.6464    0.0000 C   0  0  0  0  0  0  0  0  0  0  0  0
    1.1729  -15.3560    0.0000 C   0  0  0  0  0  0  0  0  0  0  0  0
    1.5864  -16.0619    0.0000 C   0  0  0  0  0  0  0  0  0  0  0  0
    2.4078  -16.0537    0.0000 C   0  0  0  0  0  0  0  0  0  0  0  0
    2.8078  -15.3435    0.0000 C   0  0  0  0  0  0  0  0  0  0  0  0
    5.0689  -14.2951    0.0000 O   0  0  0  0  0  0  0  0  0  0  0  0
    5.0677  -10.8110    0.0000 O   0  0  0  0  0  0  0  0  0  0  0  0
    5.4508  -10.0892    0.0000 C   0  0  0  0  0  0  0  0  0  0  0  0
    5.0173   -9.3965    0.0000 O   0  0  0  0  0  0  0  0  0  0  0  0
    6.2675  -10.0601    0.0000 C   0  0  0  0  0  0  0  0  0  0  0  0
    2.9551  -11.9648    0.0000 C   0  0  0  0  0  0  0  0  0  0  0  0
    2.8272  -12.9512    0.0000 O   0  0  0  0  0  0  0  0  0  0  0  0
    5.6538  -16.2832    0.0000 C   0  0  0  0  0  0  0  0  0  0  0  0
    5.2486  -16.9919    0.0000 C   0  0  0  0  0  0  0  0  0  0  0  0
    5.6606  -17.6987    0.0000 C   0  0  0  0  0  0  0  0  0  0  0  0
    6.4820  -17.6922    0.0000 C   0  0  0  0  0  0  0  0  0  0  0  0
    6.8835  -16.9829    0.0000 C   0  0  0  0  0  0  0  0  0  0  0  0
  2  1  1  0
  3  2  1  0
  4  6  1  0
  6  7  1  0
  7  8  1  0
  8  2  1  0
  2  9  1  0
  9  5  2  0
 16 11  1  0
 11 10  1  0
 10 12  1  0
 12 15  1  0
 12 13  1  1
 16 14  1  1
 15 16  1  0
 16 17  1  0
 15 18  1  1
 18  4  1  0
  4 19  2  0
  5 20  1  0
 20 17  1  0
 20 21  1  1
  8 22  2  0
  6 23  1  1
 23 24  1  0
 24 25  1  0
 24 26  2  0
  7 27  1  6
 27 28  1  0
 28 29  1  0
 28 30  2  0
 13 31  1  0
 31 32  1  0
 31 33  2  0
 32 34  2  0
 34 35  1  0
 35 36  2  0
 36 37  1  0
 37 38  2  0
 38 32  1  0
 18 39  1  6
 17 40  1  6
 40 41  1  0
 41 42  2  0
 41 43  1  0
 10 44  1  1
 10 45  1  0
 25 46  2  0
 46 47  1  0
 47 48  2  0
 48 49  1  0
 49 50  2  0
 50 25  1  0
M  END
>  <Curated_InChIs>  (8) 
InChI=1S/C38H44O12/c1-21-18-19-36(5,6)31(42)30(47-23(3)39)29(49-34(43)25-14-10-8-11-15-25)22(2)28(41)27-33(50-35(44)26-16-12-9-13-17-26)37(7,45)20-38(27,46)32(21)48-24(4)40/h8-19,21,27-30,32-33,41,45-46H,2,20H2,1,3-7H3

>  <threshold>  (8) 
5

>  <pchembl>  (8) 
4.55

>  <Classification>  (8) 
0

>  <source>  (8) 
chembl_28

>  <SMILES>  (8) 
C=C1[C@H](OC(=O)c2ccccc2)[C@@H](OC(C)=O)C(=O)C(C)(C)/C=C/[C@H](C)[C@@H](OC(C)=O)[C@@]2(O)C[C@@](C)(O)[C@H](OC(=O)c3ccccc3)[C@@H]2[C@H]1O

>  <InChIKey>  (8) 
BIKKDGDHWIBYDW-XRAUQELJSA-N

$$$$

     RDKit          2D

 33 37  0  0  0  0  0  0  0  0999 V2000
   23.8746  -19.7322    0.0000 C   0  0  0  0  0  0  0  0  0  0  0  0
   23.8735  -20.5518    0.0000 C   0  0  0  0  0  0  0  0  0  0  0  0
   24.5815  -20.9607    0.0000 C   0  0  0  0  0  0  0  0  0  0  0  0
   24.5797  -19.3234    0.0000 C   0  0  0  0  0  0  0  0  0  0  0  0
   25.2883  -19.7286    0.0000 C   0  0  0  0  0  0  0  0  0  0  0  0
   25.2886  -20.5518    0.0000 C   0  0  0  0  0  0  0  0  0  0  0  0
   26.0716  -20.8060    0.0000 N   0  0  0  0  0  0  0  0  0  0  0  0
   26.0711  -19.4741    0.0000 C   0  0  0  0  0  0  0  0  0  0  0  0
   26.5553  -20.1412    0.0000 C   0  0  0  0  0  0  0  0  0  0  0  0
   27.3706  -20.0559    0.0000 C   0  0  0  0  0  0  0  0  0  0  0  0
   27.7081  -19.3045    0.0000 N   0  0  0  0  0  0  0  0  0  0  0  0
   27.2239  -18.6374    0.0000 C   0  0  0  0  0  0  0  0  0  0  0  0
   26.4023  -18.7217    0.0000 C   0  0  0  0  0  0  0  0  0  0  0  0
   28.5210  -19.2206    0.0000 C   0  0  0  0  0  0  0  0  0  0  0  0
   29.0001  -19.8827    0.0000 O   0  0  0  0  0  0  0  0  0  0  0  0
   28.8548  -18.4747    0.0000 C   0  0  0  0  0  0  0  0  0  0  0  0
   29.6679  -18.3949    0.0000 C   0  0  0  0  0  0  0  0  0  0  0  0
   30.0017  -17.6498    0.0000 C   0  0  0  0  0  0  0  0  0  0  0  0
   29.5224  -16.9868    0.0000 C   0  0  0  0  0  0  0  0  0  0  0  0
   28.7056  -17.0737    0.0000 C   0  0  0  0  0  0  0  0  0  0  0  0
   28.3755  -17.8190    0.0000 C   0  0  0  0  0  0  0  0  0  0  0  0
   27.8506  -20.7146    0.0000 C   0  0  0  0  0  0  0  0  0  0  0  0
   27.5151  -21.4610    0.0000 C   0  0  0  0  0  0  0  0  0  0  0  0
   27.9935  -22.1226    0.0000 C   0  0  0  0  0  0  0  0  0  0  0  0
   28.8073  -22.0390    0.0000 C   0  0  0  0  0  0  0  0  0  0  0  0
   29.1404  -21.2882    0.0000 C   0  0  0  0  0  0  0  0  0  0  0  0
   28.6600  -20.6297    0.0000 C   0  0  0  0  0  0  0  0  0  0  0  0
   29.8552  -16.2404    0.0000 O   0  0  0  0  0  0  0  0  0  0  0  0
   30.6680  -16.1555    0.0000 C   0  0  0  0  0  0  0  0  0  0  0  0
   30.8146  -17.5663    0.0000 O   0  0  0  0  0  0  0  0  0  0  0  0
   31.2933  -18.2285    0.0000 C   0  0  0  0  0  0  0  0  0  0  0  0
   27.6593  -22.8683    0.0000 Cl  0  0  0  0  0  0  0  0  0  0  0  0
   29.2872  -22.7004    0.0000 Cl  0  0  0  0  0  0  0  0  0  0  0  0
  1  2  2  0
  2  3  1  0
  3  6  2  0
  5  4  2  0
  4  1  1  0
  5  6  1  0
  6  7  1  0
  7  9  1  0
  8  5  1  0
  8  9  2  0
  8 13  1  0
  9 10  1  0
 10 11  1  0
 11 12  1  0
 12 13  1  0
 11 14  1  0
 14 15  2  0
 14 16  1  0
 16 17  2  0
 17 18  1  0
 18 19  2  0
 19 20  1  0
 20 21  2  0
 21 16  1  0
 22 23  2  0
 23 24  1  0
 24 25  2  0
 25 26  1  0
 26 27  2  0
 27 22  1  0
 10 22  1  0
 19 28  1  0
 28 29  1  0
 18 30  1  0
 30 31  1  0
 24 32  1  0
 25 33  1  0
M  END
>  <Curated_InChIs>  (9) 
InChI=1S/C26H22Cl2N2O3/c1-32-22-10-8-16(14-23(22)33-2)26(31)30-12-11-18-17-5-3-4-6-21(17)29-24(18)25(30)15-7-9-19(27)20(28)13-15/h3-10,13-14,25,29H,11-12H2,1-2H3

>  <threshold>  (9) 
5

>  <pchembl>  (9) 
4.84

>  <Classification>  (9) 
0

>  <source>  (9) 
chembl_28

>  <SMILES>  (9) 
COc1ccc(C(=O)N2CCc3c([nH]c4ccccc34)C2c2ccc(Cl)c(Cl)c2)cc1OC

>  <InChIKey>  (9) 
BMRWUKOSTIFBRE-UHFFFAOYSA-N

$$$$

     RDKit          2D

 39 43  0  0  0  0  0  0  0  0999 V2000
    1.4761  -19.9138    0.0000 C   0  0  0  0  0  0  0  0  0  0  0  0
    1.4750  -20.7375    0.0000 C   0  0  0  0  0  0  0  0  0  0  0  0
    2.1872  -21.1465    0.0000 C   0  0  0  0  0  0  0  0  0  0  0  0
    2.9009  -20.7370    0.0000 C   0  0  0  0  0  0  0  0  0  0  0  0
    2.8981  -19.9102    0.0000 C   0  0  0  0  0  0  0  0  0  0  0  0
    2.1854  -19.5009    0.0000 C   0  0  0  0  0  0  0  0  0  0  0  0
    3.6134  -21.1445    0.0000 C   0  0  0  0  0  0  0  0  0  0  0  0
    3.6147  -21.9658    0.0000 O   0  0  0  0  0  0  0  0  0  0  0  0
    4.3205  -20.7348    0.0000 N   0  0  0  0  0  0  0  0  0  0  0  0
    5.0330  -21.1423    0.0000 C   0  0  0  0  0  0  0  0  0  0  0  0
    3.6084  -19.4949    0.0000 O   0  0  0  0  0  0  0  0  0  0  0  0
    4.3177  -19.9049    0.0000 C   0  0  0  0  0  0  0  0  0  0  0  0
    5.0279  -19.4895    0.0000 C   0  0  0  0  0  0  0  0  0  0  0  0
    5.7773  -19.8262    0.0000 C   0  0  0  0  0  0  0  0  0  0  0  0
    6.3260  -19.2127    0.0000 N   0  0  0  0  0  0  0  0  0  0  0  0
    5.9106  -18.5023    0.0000 N   0  0  0  0  0  0  0  0  0  0  0  0
    5.1078  -18.6754    0.0000 N   0  0  0  0  0  0  0  0  0  0  0  0
    7.1442  -19.2122    0.0000 C   0  0  0  0  0  0  0  0  0  0  0  0
    7.5524  -18.5002    0.0000 C   0  0  0  0  0  0  0  0  0  0  0  0
    8.3738  -18.4998    0.0000 N   0  0  0  0  0  0  0  0  0  0  0  0
    8.7835  -19.2177    0.0000 C   0  0  0  0  0  0  0  0  0  0  0  0
    9.6013  -19.2192    0.0000 C   0  0  0  0  0  0  0  0  0  0  0  0
    8.7816  -17.7924    0.0000 C   0  0  0  0  0  0  0  0  0  0  0  0
    9.6056  -17.7956    0.0000 C   0  0  0  0  0  0  0  0  0  0  0  0
   10.0104  -18.5104    0.0000 C   0  0  0  0  0  0  0  0  0  0  0  0
   10.8307  -18.5141    0.0000 C   0  0  0  0  0  0  0  0  0  0  0  0
   11.2470  -17.8038    0.0000 C   0  0  0  0  0  0  0  0  0  0  0  0
   10.8330  -17.0882    0.0000 C   0  0  0  0  0  0  0  0  0  0  0  0
   10.0141  -17.0879    0.0000 C   0  0  0  0  0  0  0  0  0  0  0  0
   11.2461  -16.3766    0.0000 O   0  0  0  0  0  0  0  0  0  0  0  0
   12.0683  -17.8061    0.0000 O   0  0  0  0  0  0  0  0  0  0  0  0
   12.4749  -18.5190    0.0000 C   0  0  0  0  0  0  0  0  0  0  0  0
   12.0674  -16.3771    0.0000 C   0  0  0  0  0  0  0  0  0  0  0  0
    5.0296  -21.9621    0.0000 C   0  0  0  0  0  0  0  0  0  0  0  0
    5.7413  -22.3736    0.0000 C   0  0  0  0  0  0  0  0  0  0  0  0
    6.4534  -21.9597    0.0000 C   0  0  0  0  0  0  0  0  0  0  0  0
    6.4495  -21.1342    0.0000 C   0  0  0  0  0  0  0  0  0  0  0  0
    5.7373  -20.7305    0.0000 C   0  0  0  0  0  0  0  0  0  0  0  0
    4.3209  -22.3690    0.0000 C   0  0  0  0  0  0  0  0  0  0  0  0
  1  2  2  0
  2  3  1  0
  3  4  2  0
  4  5  1  0
  5  6  2  0
  6  1  1  0
  4  7  1  0
  7  8  2  0
  7  9  1  0
  9 10  1  0
  5 11  1  0
 11 12  1  0
 12 13  1  0
 13 14  2  0
 14 15  1  0
 15 16  1  0
 16 17  2  0
 17 13  1  0
 15 18  1  0
 18 19  1  0
 19 20  1  0
 20 21  1  0
 20 23  1  0
 21 22  1  0
 22 25  1  0
 24 23  1  0
 24 25  2  0
 25 26  1  0
 26 27  2  0
 27 28  1  0
 28 29  2  0
 29 24  1  0
 28 30  1  0
 27 31  1  0
 31 32  1  0
 30 33  1  0
 10 34  2  0
 34 35  1  0
 35 36  2  0
 36 37  1  0
 37 38  2  0
 38 10  1  0
 34 39  1  0
M  END
>  <Curated_InChIs>  (10) 
InChI=1S/C30H33N5O4/c1-21-8-4-6-10-26(21)31-30(36)25-9-5-7-11-27(25)39-20-24-19-35(33-32-24)15-14-34-13-12-22-16-28(37-2)29(38-3)17-23(22)18-34/h4-11,16-17,19H,12-15,18,20H2,1-3H3,(H,31,36)

>  <threshold>  (10) 
5

>  <pchembl>  (10) 
4.66

>  <Classification>  (10) 
0

>  <source>  (10) 
chembl_28

>  <SMILES>  (10) 
COc1cc2c(cc1OC)CN(CCn1cc(COc3ccccc3C(=O)Nc3ccccc3C)nn1)CC2

>  <InChIKey>  (10) 
BXJYOCWGNNBSDR-UHFFFAOYSA-N

$$$$

     RDKit          2D

 39 41  0  0  0  0  0  0  0  0999 V2000
    3.9772  -10.4666    0.0000 C   0  0  0  0  0  0  0  0  0  0  0  0
    3.9761  -11.2862    0.0000 C   0  0  0  0  0  0  0  0  0  0  0  0
    4.6841  -11.6951    0.0000 C   0  0  0  0  0  0  0  0  0  0  0  0
    5.3938  -11.2857    0.0000 C   0  0  0  0  0  0  0  0  0  0  0  0
    5.3910  -10.4630    0.0000 C   0  0  0  0  0  0  0  0  0  0  0  0
    4.6823  -10.0578    0.0000 C   0  0  0  0  0  0  0  0  0  0  0  0
    6.0971  -10.0518    0.0000 C   0  0  0  0  0  0  0  0  0  0  0  0
    6.8064  -10.4577    0.0000 C   0  0  0  0  0  0  0  0  0  0  0  0
    7.5125  -10.0464    0.0000 C   0  0  0  0  0  0  0  0  0  0  0  0
    8.2218  -10.4523    0.0000 C   0  0  0  0  0  0  0  0  0  0  0  0
    8.2218  -11.2684    0.0000 C   0  0  0  0  0  0  0  0  0  0  0  0
    8.9302  -11.6743    0.0000 C   0  0  0  0  0  0  0  0  0  0  0  0
    9.6373  -11.2629    0.0000 C   0  0  0  0  0  0  0  0  0  0  0  0
    9.6316  -10.4415    0.0000 C   0  0  0  0  0  0  0  0  0  0  0  0
    8.9226  -10.0394    0.0000 C   0  0  0  0  0  0  0  0  0  0  0  0
    6.1021  -11.6932    0.0000 O   0  0  0  0  0  0  0  0  0  0  0  0
    3.2681  -11.6942    0.0000 O   0  0  0  0  0  0  0  0  0  0  0  0
    3.2694  -10.0582    0.0000 C   0  0  0  0  0  0  0  0  0  0  0  0
    4.6799   -9.2406    0.0000 O   0  0  0  0  0  0  0  0  0  0  0  0
    6.1034  -12.5104    0.0000 C   0  0  0  0  0  0  0  0  0  0  0  0
    6.0940   -9.2346    0.0000 O   0  0  0  0  0  0  0  0  0  0  0  0
    3.2674  -12.5114    0.0000 C   0  0  0  0  0  0  0  0  0  0  0  0
    2.5618  -10.4670    0.0000 C   0  0  0  0  0  0  0  0  0  0  0  0
    1.8540  -10.0585    0.0000 C   0  0  0  0  0  0  0  0  0  0  0  0
    1.1464  -10.4673    0.0000 C   0  0  0  0  0  0  0  0  0  0  0  0
    1.8538   -9.2413    0.0000 C   0  0  0  0  0  0  0  0  0  0  0  0
   10.3470  -11.6722    0.0000 N   0  0  0  0  0  0  0  0  0  0  0  0
   10.3492  -12.4903    0.0000 C   0  0  0  0  0  0  0  0  0  0  0  0
   11.0549  -12.8952    0.0000 C   0  0  0  0  0  0  0  0  0  0  0  0
   11.7629  -12.4865    0.0000 N   0  0  0  0  0  0  0  0  0  0  0  0
   11.7607  -11.6684    0.0000 C   0  0  0  0  0  0  0  0  0  0  0  0
   11.0505  -11.2589    0.0000 C   0  0  0  0  0  0  0  0  0  0  0  0
   12.4712  -12.8942    0.0000 C   0  0  0  0  0  0  0  0  0  0  0  0
   12.4722  -13.7114    0.0000 O   0  0  0  0  0  0  0  0  0  0  0  0
   13.1783  -12.4846    0.0000 O   0  0  0  0  0  0  0  0  0  0  0  0
   13.8866  -12.8923    0.0000 C   0  0  0  0  0  0  0  0  0  0  0  0
   14.5938  -12.4828    0.0000 C   0  0  0  0  0  0  0  0  0  0  0  0
   13.8877  -13.7095    0.0000 C   0  0  0  0  0  0  0  0  0  0  0  0
   14.5898  -13.2979    0.0000 C   0  0  0  0  0  0  0  0  0  0  0  0
  1  2  2  0
  2  3  1  0
  3  4  2  0
  4  5  1  0
  5  6  2  0
  6  1  1  0
  5  7  1  0
  7  8  1  0
  8  9  2  0
  9 10  1  0
 10 11  2  0
 11 12  1  0
 12 13  2  0
 13 14  1  0
 14 15  2  0
 15 10  1  0
  4 16  1  0
  2 17  1  0
  1 18  1  0
  6 19  1  0
 16 20  1  0
  7 21  2  0
 17 22  1  0
 18 23  1  0
 23 24  2  3
 24 25  1  0
 24 26  1  0
 27 28  1  0
 27 32  1  0
 28 29  1  0
 29 30  1  0
 30 31  1  0
 31 32  1  0
 13 27  1  0
 30 33  1  0
 33 34  2  0
 33 35  1  0
 35 36  1  0
 36 37  1  0
 36 38  1  0
 36 39  1  0
M  END
>  <Curated_InChIs>  (11) 
InChI=1S/C31H40N2O6/c1-21(2)8-14-24-26(37-6)20-27(38-7)28(29(24)35)25(34)15-11-22-9-12-23(13-10-22)32-16-18-33(19-17-32)30(36)39-31(3,4)5/h8-13,15,20,35H,14,16-19H2,1-7H3

>  <threshold>  (11) 
5

>  <pchembl>  (11) 
4.28

>  <Classification>  (11) 
0

>  <source>  (11) 
chembl_28

>  <SMILES>  (11) 
COc1cc(OC)c(C(=O)/C=C/c2ccc(N3CCN(C(=O)OC(C)(C)C)CC3)cc2)c(O)c1CC=C(C)C

>  <InChIKey>  (11) 
CHMLIXYKNSMWJK-RVDMUPIBSA-N

$$$$

     RDKit          2D

 28 32  0  0  0  0  0  0  0  0999 V2000
    3.4407  -21.9527    0.0000 C   0  0  0  0  0  0  0  0  0  0  0  0
    3.4395  -22.7722    0.0000 C   0  0  0  0  0  0  0  0  0  0  0  0
    4.1476  -23.1812    0.0000 C   0  0  0  0  0  0  0  0  0  0  0  0
    4.8573  -22.7718    0.0000 C   0  0  0  0  0  0  0  0  0  0  0  0
    4.8544  -21.9491    0.0000 C   0  0  0  0  0  0  0  0  0  0  0  0
    4.1458  -21.5438    0.0000 C   0  0  0  0  0  0  0  0  0  0  0  0
    5.5633  -23.1784    0.0000 N   0  0  0  0  0  0  0  0  0  0  0  0
    5.5626  -23.9966    0.0000 C   0  0  0  0  0  0  0  0  0  0  0  0
    6.2669  -24.4040    0.0000 C   0  0  0  0  0  0  0  0  0  0  0  0
    6.9764  -23.9978    0.0000 N   0  0  0  0  0  0  0  0  0  0  0  0
    6.9771  -23.1796    0.0000 C   0  0  0  0  0  0  0  0  0  0  0  0
    6.2683  -22.7677    0.0000 C   0  0  0  0  0  0  0  0  0  0  0  0
    4.1474  -23.9984    0.0000 F   0  0  0  0  0  0  0  0  0  0  0  0
    7.6832  -24.4079    0.0000 C   0  0  0  0  0  0  0  0  0  0  0  0
    8.3918  -24.0009    0.0000 C   0  0  0  0  0  0  0  0  0  0  0  0
    9.1369  -24.3333    0.0000 N   0  0  0  0  0  0  0  0  0  0  0  0
    9.6850  -23.7272    0.0000 C   0  0  0  0  0  0  0  0  0  0  0  0
    9.2780  -23.0186    0.0000 S   0  0  0  0  0  0  0  0  0  0  0  0
    8.4783  -23.1868    0.0000 C   0  0  0  0  0  0  0  0  0  0  0  0
   10.4976  -23.8145    0.0000 C   0  0  0  0  0  0  0  0  0  0  0  0
   10.8242  -24.5643    0.0000 C   0  0  0  0  0  0  0  0  0  0  0  0
   11.7838  -23.2412    0.0000 C   0  0  0  0  0  0  0  0  0  0  0  0
   10.9730  -23.1574    0.0000 C   0  0  0  0  0  0  0  0  0  0  0  0
   12.1186  -23.9913    0.0000 C   0  0  0  0  0  0  0  0  0  0  0  0
   11.6403  -24.6532    0.0000 C   0  0  0  0  0  0  0  0  0  0  0  0
   12.1220  -25.3126    0.0000 O   0  0  0  0  0  0  0  0  0  0  0  0
   12.8981  -25.0583    0.0000 C   0  0  0  0  0  0  0  0  0  0  0  0
   12.8959  -24.2417    0.0000 O   0  0  0  0  0  0  0  0  0  0  0  0
  1  2  2  0
  2  3  1  0
  3  4  2  0
  4  5  1  0
  5  6  2  0
  6  1  1  0
  7  8  1  0
  7 12  1  0
  8  9  1  0
  9 10  1  0
 10 11  1  0
 11 12  1  0
  4  7  1  0
  3 13  1  0
 10 14  1  0
 14 15  1  0
 15 16  1  0
 16 17  2  0
 17 18  1  0
 18 19  1  0
 19 15  2  0
 17 20  1  0
 20 21  2  0
 21 25  1  0
 24 22  1  0
 22 23  2  0
 23 20  1  0
 24 25  2  0
 25 26  1  0
 26 27  1  0
 27 28  1  0
 28 24  1  0
M  END
>  <Curated_InChIs>  (12) 
InChI=1S/C21H20FN3O2S/c22-17-3-1-2-4-18(17)25-9-7-24(8-10-25)12-16-13-28-21(23-16)15-5-6-19-20(11-15)27-14-26-19/h1-6,11,13H,7-10,12,14H2

>  <threshold>  (12) 
5

>  <pchembl>  (12) 
4.81

>  <Classification>  (12) 
0

>  <source>  (12) 
chembl_28

>  <SMILES>  (12) 
Fc1ccccc1N1CCN(Cc2csc(-c3ccc4c(c3)OCO4)n2)CC1

>  <InChIKey>  (12) 
CIXGFQNLXZKQAX-UHFFFAOYSA-N

$$$$

     RDKit          2D

 26 29  0  0  0  0  0  0  0  0999 V2000
   -3.8764    2.9156    0.0000 S   0  0  0  0  0  0  0  0  0  0  0  0
    1.9256   -0.3799    0.0000 O   0  0  0  0  0  0  0  0  0  0  0  0
   -3.0757    0.8576    0.0000 N   0  0  0  0  0  0  0  0  0  0  0  0
   -2.3612    2.0951    0.0000 N   0  0  0  0  0  0  0  0  0  0  0  0
   -2.3612   -0.3799    0.0000 N   0  0  0  0  0  0  0  0  0  0  0  0
    0.4967   -0.3799    0.0000 N   0  0  0  0  0  0  0  0  0  0  0  0
   -1.6468    0.8576    0.0000 C   0  0  0  0  0  0  0  0  0  0  0  0
   -2.3612    0.4451    0.0000 C   0  0  0  0  0  0  0  0  0  0  0  0
   -1.6468    1.6826    0.0000 C   0  0  0  0  0  0  0  0  0  0  0  0
   -3.0757    1.6826    0.0000 C   0  0  0  0  0  0  0  0  0  0  0  0
   -3.7902    2.0951    0.0000 C   0  0  0  0  0  0  0  0  0  0  0  0
   -0.9323    0.4451    0.0000 C   0  0  0  0  0  0  0  0  0  0  0  0
   -1.6468   -0.7924    0.0000 C   0  0  0  0  0  0  0  0  0  0  0  0
   -0.9323    2.0951    0.0000 C   0  0  0  0  0  0  0  0  0  0  0  0
   -4.5438    1.7595    0.0000 C   0  0  0  0  0  0  0  0  0  0  0  0
   -0.2178    0.8576    0.0000 C   0  0  0  0  0  0  0  0  0  0  0  0
   -0.2178    1.6826    0.0000 C   0  0  0  0  0  0  0  0  0  0  0  0
   -0.9323   -0.3799    0.0000 C   0  0  0  0  0  0  0  0  0  0  0  0
   -0.2178   -0.7924    0.0000 C   0  0  0  0  0  0  0  0  0  0  0  0
   -1.6468   -1.6174    0.0000 C   0  0  0  0  0  0  0  0  0  0  0  0
   -4.6834    3.0871    0.0000 C   0  0  0  0  0  0  0  0  0  0  0  0
   -5.0959    2.3726    0.0000 C   0  0  0  0  0  0  0  0  0  0  0  0
   -0.2178   -1.6174    0.0000 C   0  0  0  0  0  0  0  0  0  0  0  0
   -0.9323   -2.0299    0.0000 C   0  0  0  0  0  0  0  0  0  0  0  0
    1.2111   -0.7924    0.0000 C   0  0  0  0  0  0  0  0  0  0  0  0
    1.2111   -1.6174    0.0000 C   0  0  0  0  0  0  0  0  0  0  0  0
  1 11  1  0
  1 21  1  0
  2 25  2  0
  3  8  2  0
  3 10  1  0
  4  9  1  0
  4 10  2  0
  5  8  1  0
  5 13  1  0
  6 19  1  0
  6 25  1  0
  7  8  1  0
  7  9  2  0
  7 12  1  0
  9 14  1  0
 10 11  1  0
 11 15  2  0
 12 16  2  0
 13 18  2  0
 13 20  1  0
 14 17  2  0
 15 22  1  0
 16 17  1  0
 18 19  1  0
 19 23  2  0
 20 24  2  0
 21 22  2  0
 23 24  1  0
 25 26  1  0
M  END
>  <Curated_InChIs>  (13) 
InChI=1S/C20H16N4OS/c1-13(25)21-14-6-4-7-15(12-14)22-19-16-8-2-3-9-17(16)23-20(24-19)18-10-5-11-26-18/h2-12H,1H3,(H,21,25)(H,22,23,24)

>  <threshold>  (13) 
5

>  <pchembl>  (13) 
4.83

>  <Classification>  (13) 
0

>  <source>  (13) 
chembl_28

>  <SMILES>  (13) 
CC(=O)Nc1cccc(Nc2nc(-c3cccs3)nc3ccccc23)c1

>  <InChIKey>  (13) 
CMIZQGPTGPSAMK-UHFFFAOYSA-N

$$$$

     RDKit          2D

 29 30  0  0  0  0  0  0  0  0999 V2000
    7.4292   -6.2417    0.0000 N   0  0  0  0  0  0  0  0  0  0  0  0
    7.4167   -7.9667    0.0000 C   0  0  0  0  0  0  0  0  0  0  0  0
    3.3667   -6.5292    0.0000 C   0  0  0  0  0  0  0  0  0  0  0  0
    4.3542   -6.2792    0.0000 C   0  0  0  0  0  0  0  0  0  0  0  0
    6.3917   -6.1750    0.0000 C   0  0  0  0  0  0  0  0  0  0  0  0
    4.8917   -8.7667    0.0000 C   0  0  0  0  0  0  0  0  0  0  0  0
    4.3417   -7.8042    0.0000 O   0  0  0  0  0  0  0  0  0  0  0  0
    5.8167   -8.7792    0.0000 C   0  0  0  0  0  0  0  0  0  0  0  0
    6.2542   -7.9667    0.0000 C   0  0  0  0  0  0  0  0  0  0  0  0
    5.0667   -5.5542    0.0000 O   0  0  0  0  0  0  0  0  0  0  0  0
    3.3667   -7.5417    0.0000 C   0  0  0  0  0  0  0  0  0  0  0  0
    5.8917   -5.5542    0.0000 C   0  0  0  0  0  0  0  0  0  0  0  0
    7.9917   -8.5417    0.0000 C   0  0  0  0  0  0  0  0  0  0  0  0
    5.2292   -6.7792    0.0000 O   0  0  0  0  0  0  0  0  0  0  0  0
    6.0167   -6.6750    0.0000 O   0  0  0  0  0  0  0  0  0  0  0  0
    4.4667   -9.4792    0.0000 O   0  0  0  0  0  0  0  0  0  0  0  0
    5.5417   -7.5542    0.0000 O   0  0  0  0  0  0  0  0  0  0  0  0
    8.0792   -5.7292    0.0000 C   0  0  0  0  0  0  0  0  0  0  0  0
    8.7917   -8.3292    0.0000 C   0  0  0  0  0  0  0  0  0  0  0  0
    2.5667   -5.9042    0.0000 C   0  0  0  0  0  0  0  0  0  0  0  0
    2.4917   -8.0542    0.0000 C   0  0  0  0  0  0  0  0  0  0  0  0
    9.0042   -7.5417    0.0000 C   0  0  0  0  0  0  0  0  0  0  0  0
    9.3667   -8.9167    0.0000 C   0  0  0  0  0  0  0  0  0  0  0  0
    1.6167   -7.5417    0.0000 C   0  0  0  0  0  0  0  0  0  0  0  0
    0.7417   -8.0417    0.0000 C   0  0  0  0  0  0  0  0  0  0  0  0
   -0.1333   -7.5417    0.0000 C   0  0  0  0  0  0  0  0  0  0  0  0
    9.7917   -7.3292    0.0000 C   0  0  0  0  0  0  0  0  0  0  0  0
   10.1667   -8.7042    0.0000 C   0  0  0  0  0  0  0  0  0  0  0  0
   10.3792   -7.9167    0.0000 C   0  0  0  0  0  0  0  0  0  0  0  0
  2  1  1  0
  3  4  1  0
  4 10  1  0
  5  1  1  0
  6  8  1  0
  7  6  1  0
  8  9  1  0
  9  2  1  0
 10 12  1  0
 11  3  1  0
 12  5  1  0
  2 13  1  1
 14  4  2  0
 15  5  2  0
 16  6  2  0
  9 17  1  6
 18  1  1  0
 19 13  1  0
  3 20  1  6
 11 21  1  6
 22 19  2  0
 23 19  1  0
 24 21  1  0
 25 24  1  0
 26 25  1  0
 27 22  1  0
 28 23  2  0
 29 28  1  0
 11  7  1  0
 29 27  2  0
M  END
>  <Curated_InChIs>  (14) 
InChI=1S/C22H31NO6/c1-4-5-11-19-15(2)22(27)28-14-20(25)23(3)17(18(24)13-21(26)29-19)12-16-9-7-6-8-10-16/h6-10,15,17-19,24H,4-5,11-14H2,1-3H3

>  <threshold>  (14) 
5

>  <pchembl>  (14) 
4.74

>  <Classification>  (14) 
0

>  <source>  (14) 
chembl_28

>  <SMILES>  (14) 
CCCC[C@H]1OC(=O)C[C@H](O)[C@H](Cc2ccccc2)N(C)C(=O)COC(=O)[C@H]1C

>  <InChIKey>  (14) 
CTARJIQUQSWZRW-DSLXNQLJSA-N

$$$$

     RDKit          2D

 25 28  0  0  0  0  0  0  0  0999 V2000
    1.8022   -3.7186    0.0000 C   0  0  0  0  0  0  0  0  0  0  0  0
    1.8010   -4.5381    0.0000 C   0  0  0  0  0  0  0  0  0  0  0  0
    2.5091   -4.9471    0.0000 C   0  0  0  0  0  0  0  0  0  0  0  0
    2.5073   -3.3097    0.0000 C   0  0  0  0  0  0  0  0  0  0  0  0
    3.2159   -3.7150    0.0000 C   0  0  0  0  0  0  0  0  0  0  0  0
    3.2162   -4.5382    0.0000 C   0  0  0  0  0  0  0  0  0  0  0  0
    3.9991   -4.7923    0.0000 N   0  0  0  0  0  0  0  0  0  0  0  0
    3.9987   -3.4604    0.0000 C   0  0  0  0  0  0  0  0  0  0  0  0
    4.4829   -4.1276    0.0000 C   0  0  0  0  0  0  0  0  0  0  0  0
    5.2982   -4.0423    0.0000 C   0  0  0  0  0  0  0  0  0  0  0  0
    5.6357   -3.2909    0.0000 N   0  0  0  0  0  0  0  0  0  0  0  0
    5.1515   -2.6238    0.0000 C   0  0  0  0  0  0  0  0  0  0  0  0
    4.3298   -2.7081    0.0000 C   0  0  0  0  0  0  0  0  0  0  0  0
    6.4486   -3.2070    0.0000 C   0  0  0  0  0  0  0  0  0  0  0  0
    6.9276   -3.8690    0.0000 O   0  0  0  0  0  0  0  0  0  0  0  0
    6.7823   -2.4611    0.0000 C   0  0  0  0  0  0  0  0  0  0  0  0
    7.5954   -2.3812    0.0000 C   0  0  0  0  0  0  0  0  0  0  0  0
    7.9292   -1.6361    0.0000 C   0  0  0  0  0  0  0  0  0  0  0  0
    7.4500   -0.9732    0.0000 C   0  0  0  0  0  0  0  0  0  0  0  0
    6.6332   -1.0601    0.0000 C   0  0  0  0  0  0  0  0  0  0  0  0
    6.3031   -1.8054    0.0000 C   0  0  0  0  0  0  0  0  0  0  0  0
    5.7773   -4.7043    0.0000 C   0  0  0  0  0  0  0  0  0  0  0  0
    5.4435   -5.4502    0.0000 C   0  0  0  0  0  0  0  0  0  0  0  0
    5.9226   -6.1122    0.0000 C   0  0  0  0  0  0  0  0  0  0  0  0
    4.6307   -5.5341    0.0000 C   0  0  0  0  0  0  0  0  0  0  0  0
  1  2  2  0
  2  3  1  0
  3  6  2  0
  5  4  2  0
  4  1  1  0
  5  6  1  0
  6  7  1  0
  7  9  1  0
  8  5  1  0
  8  9  2  0
  8 13  1  0
  9 10  1  0
 10 11  1  0
 11 12  1  0
 12 13  1  0
 11 14  1  0
 14 15  2  0
 14 16  1  0
 16 17  2  0
 17 18  1  0
 18 19  2  0
 19 20  1  0
 20 21  2  0
 21 16  1  0
 10 22  1  0
 22 23  1  0
 23 24  1  0
 23 25  1  0
M  END
>  <Curated_InChIs>  (15) 
InChI=1S/C22H24N2O/c1-15(2)14-20-21-18(17-10-6-7-11-19(17)23-21)12-13-24(20)22(25)16-8-4-3-5-9-16/h3-11,15,20,23H,12-14H2,1-2H3

>  <threshold>  (15) 
5

>  <pchembl>  (15) 
4.89

>  <Classification>  (15) 
0

>  <source>  (15) 
chembl_28

>  <SMILES>  (15) 
CC(C)CC1c2[nH]c3ccccc3c2CCN1C(=O)c1ccccc1

>  <InChIKey>  (15) 
CXNXVUFJOWJCJJ-UHFFFAOYSA-N

$$$$

     RDKit          2D

 21 23  0  0  0  0  0  0  0  0999 V2000
    5.2444   -6.8708    0.0000 C   0  0  0  0  0  0  0  0  0  0  0  0
    5.2432   -7.6982    0.0000 C   0  0  0  0  0  0  0  0  0  0  0  0
    5.9581   -8.1110    0.0000 C   0  0  0  0  0  0  0  0  0  0  0  0
    6.6745   -7.6977    0.0000 C   0  0  0  0  0  0  0  0  0  0  0  0
    6.6716   -6.8672    0.0000 C   0  0  0  0  0  0  0  0  0  0  0  0
    5.9563   -6.4580    0.0000 C   0  0  0  0  0  0  0  0  0  0  0  0
    7.3815   -6.4533    0.0000 C   0  0  0  0  0  0  0  0  0  0  0  0
    8.0978   -6.8648    0.0000 C   0  0  0  0  0  0  0  0  0  0  0  0
    8.8102   -6.4503    0.0000 C   0  0  0  0  0  0  0  0  0  0  0  0
    8.8076   -5.6244    0.0000 C   0  0  0  0  0  0  0  0  0  0  0  0
    8.0865   -5.2148    0.0000 C   0  0  0  0  0  0  0  0  0  0  0  0
    7.3771   -5.6317    0.0000 C   0  0  0  0  0  0  0  0  0  0  0  0
    9.5161   -5.2067    0.0000 C   0  0  0  0  0  0  0  0  0  0  0  0
   10.2329   -5.6173    0.0000 C   0  0  0  0  0  0  0  0  0  0  0  0
   10.9448   -5.2018    0.0000 C   0  0  0  0  0  0  0  0  0  0  0  0
   10.9410   -4.3760    0.0000 C   0  0  0  0  0  0  0  0  0  0  0  0
   10.2194   -3.9673    0.0000 C   0  0  0  0  0  0  0  0  0  0  0  0
    9.5105   -4.3851    0.0000 C   0  0  0  0  0  0  0  0  0  0  0  0
   10.2123   -3.1423    0.0000 O   0  0  0  0  0  0  0  0  0  0  0  0
   11.6612   -5.6110    0.0000 O   0  0  0  0  0  0  0  0  0  0  0  0
    4.5284   -8.1101    0.0000 O   0  0  0  0  0  0  0  0  0  0  0  0
 10 11  1  0
  5  6  1  0
 11 12  2  0
 12  7  1  0
  5  7  1  0
  6  1  2  0
  1  2  1  0
 13 14  2  0
  3  4  1  0
 14 15  1  0
  7  8  2  0
 15 16  2  0
 16 17  1  0
  8  9  1  0
 17 18  2  0
 18 13  1  0
 10 13  1  0
  4  5  2  0
 17 19  1  0
  9 10  2  0
 15 20  1  0
  2  3  2  0
  2 21  1  0
M  END
>  <Curated_InChIs>  (16) 
InChI=1S/C18H14O3/c19-16-7-5-13(6-8-16)12-1-3-14(4-2-12)15-9-17(20)11-18(21)10-15/h1-11,19-21H

>  <threshold>  (16) 
5

>  <pchembl>  (16) 
4.64

>  <Classification>  (16) 
0

>  <source>  (16) 
chembl_28

>  <SMILES>  (16) 
Oc1ccc(-c2ccc(-c3cc(O)cc(O)c3)cc2)cc1

>  <InChIKey>  (16) 
DADMQAUVBPTTDT-UHFFFAOYSA-N

$$$$

     RDKit          2D

 30 34  0  0  0  0  0  0  0  0999 V2000
    2.8092   -3.3595    0.0000 C   0  0  0  0  0  0  0  0  0  0  0  0
    2.8081   -4.1791    0.0000 C   0  0  0  0  0  0  0  0  0  0  0  0
    3.5161   -4.5880    0.0000 C   0  0  0  0  0  0  0  0  0  0  0  0
    3.5143   -2.9507    0.0000 C   0  0  0  0  0  0  0  0  0  0  0  0
    4.2230   -3.3559    0.0000 C   0  0  0  0  0  0  0  0  0  0  0  0
    4.2237   -4.1749    0.0000 C   0  0  0  0  0  0  0  0  0  0  0  0
    4.9323   -4.5820    0.0000 C   0  0  0  0  0  0  0  0  0  0  0  0
    5.6405   -4.1712    0.0000 C   0  0  0  0  0  0  0  0  0  0  0  0
    5.6358   -3.3491    0.0000 C   0  0  0  0  0  0  0  0  0  0  0  0
    4.9267   -2.9457    0.0000 N   0  0  0  0  0  0  0  0  0  0  0  0
    6.3380   -2.9379    0.0000 C   0  0  0  0  0  0  0  0  0  0  0  0
    7.0485   -3.3439    0.0000 C   0  0  0  0  0  0  0  0  0  0  0  0
    7.7532   -2.9317    0.0000 N   0  0  0  0  0  0  0  0  0  0  0  0
    7.7487   -2.1136    0.0000 C   0  0  0  0  0  0  0  0  0  0  0  0
    7.0335   -1.7095    0.0000 C   0  0  0  0  0  0  0  0  0  0  0  0
    6.3317   -2.1241    0.0000 C   0  0  0  0  0  0  0  0  0  0  0  0
    4.9339   -5.3992    0.0000 C   0  0  0  0  0  0  0  0  0  0  0  0
    4.2271   -5.8093    0.0000 O   0  0  0  0  0  0  0  0  0  0  0  0
    5.6425   -5.8063    0.0000 N   0  0  0  0  0  0  0  0  0  0  0  0
    5.6416   -6.6207    0.0000 C   0  0  0  0  0  0  0  0  0  0  0  0
    6.3461   -7.0277    0.0000 C   0  0  0  0  0  0  0  0  0  0  0  0
    7.0554   -6.6212    0.0000 N   0  0  0  0  0  0  0  0  0  0  0  0
    7.0556   -5.8030    0.0000 C   0  0  0  0  0  0  0  0  0  0  0  0
    6.3466   -5.3915    0.0000 C   0  0  0  0  0  0  0  0  0  0  0  0
    7.7624   -7.0310    0.0000 C   0  0  0  0  0  0  0  0  0  0  0  0
    8.4708   -6.6236    0.0000 C   0  0  0  0  0  0  0  0  0  0  0  0
    9.2166   -6.9529    0.0000 S   0  0  0  0  0  0  0  0  0  0  0  0
    9.7644   -6.3466    0.0000 C   0  0  0  0  0  0  0  0  0  0  0  0
    9.3570   -5.6381    0.0000 C   0  0  0  0  0  0  0  0  0  0  0  0
    8.5574   -5.8068    0.0000 C   0  0  0  0  0  0  0  0  0  0  0  0
  1  2  2  0
  2  3  1  0
  3  6  2  0
  5  4  2  0
  4  1  1  0
  5  6  1  0
  6  7  1  0
  7  8  2  0
  8  9  1  0
  9 10  2  0
 10  5  1  0
 11 12  2  0
 12 13  1  0
 13 14  2  0
 14 15  1  0
 15 16  2  0
 16 11  1  0
  9 11  1  0
  7 17  1  0
 17 18  2  0
 17 19  1  0
 19 20  1  0
 19 24  1  0
 20 21  1  0
 21 22  1  0
 22 23  1  0
 23 24  1  0
 22 25  1  0
 25 26  1  0
 26 27  1  0
 27 28  1  0
 28 29  2  0
 29 30  1  0
 30 26  2  0
M  END
>  <Curated_InChIs>  (17) 
InChI=1S/C24H22N4OS/c29-24(28-12-10-27(11-13-28)17-19-6-4-14-30-19)21-15-23(18-5-3-9-25-16-18)26-22-8-2-1-7-20(21)22/h1-9,14-16H,10-13,17H2

>  <threshold>  (17) 
5

>  <pchembl>  (17) 
4.56

>  <Classification>  (17) 
0

>  <source>  (17) 
chembl_28

>  <SMILES>  (17) 
O=C(c1cc(-c2cccnc2)nc2ccccc12)N1CCN(Cc2cccs2)CC1

>  <InChIKey>  (17) 
DTLVZKOZZDRHEB-UHFFFAOYSA-N

$$$$

     RDKit          2D

 34 37  0  0  0  0  0  0  0  0999 V2000
   -3.6710   -5.0871    0.0000 C   0  0  0  0  0  0  0  0  0  0  0  0
   -3.6710   -5.9167    0.0000 C   0  0  0  0  0  0  0  0  0  0  0  0
   -2.9566   -6.3292    0.0000 C   0  0  0  0  0  0  0  0  0  0  0  0
   -2.9566   -4.6701    0.0000 C   0  0  0  0  0  0  0  0  0  0  0  0
   -2.2376   -5.0871    0.0000 C   0  0  0  0  0  0  0  0  0  0  0  0
   -2.2365   -5.9167    0.0000 C   0  0  0  0  0  0  0  0  0  0  0  0
   -1.5215   -6.3282    0.0000 C   0  0  0  0  0  0  0  0  0  0  0  0
   -0.8031   -5.9148    0.0000 C   0  0  0  0  0  0  0  0  0  0  0  0
   -0.8042   -5.0853    0.0000 C   0  0  0  0  0  0  0  0  0  0  0  0
   -1.5237   -4.6692    0.0000 C   0  0  0  0  0  0  0  0  0  0  0  0
   -2.9577   -3.8451    0.0000 O   0  0  0  0  0  0  0  0  0  0  0  0
   -3.6728   -3.4336    0.0000 C   0  0  0  0  0  0  0  0  0  0  0  0
   -3.6739   -2.6087    0.0000 O   0  0  0  0  0  0  0  0  0  0  0  0
   -4.3864   -4.6764    0.0000 O   0  0  0  0  0  0  0  0  0  0  0  0
   -2.9652   -5.5042    0.0000 C   0  0  0  0  0  0  0  0  0  0  0  0
   -2.2457   -6.7370    0.0000 O   0  0  0  0  0  0  0  0  0  0  0  0
   -0.8112   -6.7370    0.0000 C   0  0  0  0  0  0  0  0  0  0  0  0
   -0.6003   -7.5298    0.0000 C   0  0  0  0  0  0  0  0  0  0  0  0
   -0.0184   -6.5217    0.0000 C   0  0  0  0  0  0  0  0  0  0  0  0
   -2.2457   -4.2622    0.0000 C   0  0  0  0  0  0  0  0  0  0  0  0
   -1.5259   -3.8442    0.0000 O   0  0  0  0  0  0  0  0  0  0  0  0
   -0.8125   -3.4299    0.0000 C   0  0  0  0  0  0  0  0  0  0  0  0
   -0.8147   -2.6049    0.0000 O   0  0  0  0  0  0  0  0  0  0  0  0
   -0.0971   -3.8413    0.0000 C   0  0  0  0  0  0  0  0  0  0  0  0
   -0.0087   -4.6614    0.0000 C   0  0  0  0  0  0  0  0  0  0  0  0
    0.7987   -4.8307    0.0000 C   0  0  0  0  0  0  0  0  0  0  0  0
    1.2093   -4.1151    0.0000 C   0  0  0  0  0  0  0  0  0  0  0  0
    0.6556   -3.5037    0.0000 O   0  0  0  0  0  0  0  0  0  0  0  0
   -1.5216   -7.1531    0.0000 O   0  0  0  0  0  0  0  0  0  0  0  0
   -3.6756   -6.7370    0.0000 O   0  0  0  0  0  0  0  0  0  0  0  0
   -4.3884   -3.8515    0.0000 C   0  0  0  0  0  0  0  0  0  0  0  0
   -5.0998   -5.0906    0.0000 C   0  0  0  0  0  0  0  0  0  0  0  0
   -5.8153   -4.6798    0.0000 C   0  0  0  0  0  0  0  0  0  0  0  0
   -5.0978   -5.9155    0.0000 O   0  0  0  0  0  0  0  0  0  0  0  0
  5  4  1  0
  8 17  1  0
 16 17  1  0
  5 10  1  0
 17 18  1  0
  6  7  1  0
 17 19  1  0
  7  8  1  0
  8  9  1  1
  5 20  1  6
  9 10  1  0
 10 21  1  1
  5  6  1  0
 21 22  1  0
  4 11  1  6
 22 23  2  0
 24 25  2  0
 11 12  1  0
  1  2  1  0
 12 13  2  0
 12 31  1  0
 25 26  1  0
 26 27  2  0
 27 28  1  0
 28 24  1  0
 22 24  1  0
  1  4  1  0
  7 29  1  1
  1 14  1  6
  3 30  1  0
  2  3  1  0
  3 15  1  1
 14 32  1  0
  3  6  1  0
 32 33  1  0
  6 16  1  1
 32 34  2  0
M  END
>  <Curated_InChIs>  (18) 
InChI=1S/C24H32O10/c1-12(25)31-16-11-22(5,29)24-18(27)14(21(3,4)34-24)10-17(23(24,6)19(16)32-13(2)26)33-20(28)15-8-7-9-30-15/h7-9,14,16-19,27,29H,10-11H2,1-6H3

>  <threshold>  (18) 
5

>  <pchembl>  (18) 
4.76

>  <Classification>  (18) 
0

>  <source>  (18) 
chembl_28

>  <SMILES>  (18) 
CC(=O)O[C@H]1C[C@@](C)(O)[C@]23OC(C)(C)[C@H](C[C@H](OC(=O)c4ccco4)[C@]2(C)[C@H]1OC(C)=O)[C@H]3O

>  <InChIKey>  (18) 
FDLIOTNOCLUUOP-LYHYJRNDSA-N

$$$$

     RDKit          2D

 24 27  0  0  0  0  0  0  0  0999 V2000
    9.2601  -12.6169    0.0000 C   0  0  0  0  0  0  0  0  0  0  0  0
    9.2589  -13.4364    0.0000 C   0  0  0  0  0  0  0  0  0  0  0  0
    9.9670  -13.8454    0.0000 C   0  0  0  0  0  0  0  0  0  0  0  0
    9.9652  -12.2080    0.0000 C   0  0  0  0  0  0  0  0  0  0  0  0
   10.6738  -12.6133    0.0000 C   0  0  0  0  0  0  0  0  0  0  0  0
   10.6746  -13.4323    0.0000 C   0  0  0  0  0  0  0  0  0  0  0  0
   11.3831  -13.8394    0.0000 N   0  0  0  0  0  0  0  0  0  0  0  0
   12.0914  -13.4286    0.0000 C   0  0  0  0  0  0  0  0  0  0  0  0
   12.0866  -12.6064    0.0000 N   0  0  0  0  0  0  0  0  0  0  0  0
   11.3775  -12.2031    0.0000 C   0  0  0  0  0  0  0  0  0  0  0  0
   12.8048  -13.8316    0.0000 C   0  0  0  0  0  0  0  0  0  0  0  0
   12.8934  -14.6439    0.0000 C   0  0  0  0  0  0  0  0  0  0  0  0
   13.6934  -14.8107    0.0000 C   0  0  0  0  0  0  0  0  0  0  0  0
   14.0993  -14.1014    0.0000 C   0  0  0  0  0  0  0  0  0  0  0  0
   13.5500  -13.4963    0.0000 N   0  0  0  0  0  0  0  0  0  0  0  0
   11.3732  -11.3859    0.0000 N   0  0  0  0  0  0  0  0  0  0  0  0
   12.0787  -10.9735    0.0000 C   0  0  0  0  0  0  0  0  0  0  0  0
   12.7840  -11.3818    0.0000 C   0  0  0  0  0  0  0  0  0  0  0  0
   13.4891  -10.9701    0.0000 C   0  0  0  0  0  0  0  0  0  0  0  0
   13.4852  -10.1520    0.0000 C   0  0  0  0  0  0  0  0  0  0  0  0
   12.7703   -9.7474    0.0000 C   0  0  0  0  0  0  0  0  0  0  0  0
   12.0682  -10.1614    0.0000 C   0  0  0  0  0  0  0  0  0  0  0  0
   14.1981  -11.3741    0.0000 C   0  0  0  0  0  0  0  0  0  0  0  0
   14.9077  -11.7793    0.0000 N   0  0  0  0  0  0  0  0  0  0  0  0
  1  2  2  0
  2  3  1  0
  3  6  2  0
  5  4  2  0
  4  1  1  0
  5  6  1  0
  6  7  1  0
  7  8  2  0
  8  9  1  0
  9 10  2  0
 10  5  1  0
 11 12  2  0
 12 13  1  0
 13 14  2  0
 14 15  1  0
 15 11  1  0
  8 11  1  0
 10 16  1  0
 16 17  1  0
 17 18  2  0
 18 19  1  0
 19 20  2  0
 20 21  1  0
 21 22  2  0
 22 17  1  0
 23 24  3  0
 19 23  1  0
M  END
>  <Curated_InChIs>  (19) 
InChI=1S/C19H13N5/c20-12-13-5-3-6-14(11-13)22-18-15-7-1-2-8-16(15)23-19(24-18)17-9-4-10-21-17/h1-11,21H,(H,22,23,24)

>  <threshold>  (19) 
5

>  <pchembl>  (19) 
4.73

>  <Classification>  (19) 
0

>  <source>  (19) 
chembl_28

>  <SMILES>  (19) 
N#Cc1cccc(Nc2nc(-c3ccc[nH]3)nc3ccccc23)c1

>  <InChIKey>  (19) 
FGHQGUOXZCKHKM-UHFFFAOYSA-N

$$$$

     RDKit          2D

 28 29  0  0  0  0  0  0  0  0999 V2000
    0.4667   -1.6042    0.0000 N   0  0  0  0  0  0  0  0  0  0  0  0
   -0.5208   -1.5667    0.0000 C   0  0  0  0  0  0  0  0  0  0  0  0
   -1.8833   -0.9167    0.0000 O   0  0  0  0  0  0  0  0  0  0  0  0
   -1.0583   -0.9167    0.0000 C   0  0  0  0  0  0  0  0  0  0  0  0
   -2.5958   -1.6417    0.0000 C   0  0  0  0  0  0  0  0  0  0  0  0
    0.4542   -3.3292    0.0000 C   0  0  0  0  0  0  0  0  0  0  0  0
   -1.1333   -4.1417    0.0000 C   0  0  0  0  0  0  0  0  0  0  0  0
   -0.6958   -3.3292    0.0000 C   0  0  0  0  0  0  0  0  0  0  0  0
   -2.0583   -4.1292    0.0000 C   0  0  0  0  0  0  0  0  0  0  0  0
   -3.5833   -1.8917    0.0000 C   0  0  0  0  0  0  0  0  0  0  0  0
   -2.6083   -3.1667    0.0000 O   0  0  0  0  0  0  0  0  0  0  0  0
   -0.9583   -2.1542    0.0000 O   0  0  0  0  0  0  0  0  0  0  0  0
    1.0417   -3.9042    0.0000 C   0  0  0  0  0  0  0  0  0  0  0  0
   -3.5833   -2.9042    0.0000 C   0  0  0  0  0  0  0  0  0  0  0  0
   -1.7333   -2.1417    0.0000 O   0  0  0  0  0  0  0  0  0  0  0  0
   -2.4833   -4.8417    0.0000 O   0  0  0  0  0  0  0  0  0  0  0  0
   -0.8333   -0.1292    0.0000 C   0  0  0  0  0  0  0  0  0  0  0  0
    1.1292   -1.0917    0.0000 C   0  0  0  0  0  0  0  0  0  0  0  0
   -1.4208   -2.9167    0.0000 O   0  0  0  0  0  0  0  0  0  0  0  0
    1.8417   -3.6917    0.0000 C   0  0  0  0  0  0  0  0  0  0  0  0
   -4.3833   -1.2667    0.0000 C   0  0  0  0  0  0  0  0  0  0  0  0
   -0.0333    0.0708    0.0000 C   0  0  0  0  0  0  0  0  0  0  0  0
   -1.4083    0.4833    0.0000 C   0  0  0  0  0  0  0  0  0  0  0  0
    2.4167   -4.2792    0.0000 C   0  0  0  0  0  0  0  0  0  0  0  0
    2.0417   -2.9042    0.0000 C   0  0  0  0  0  0  0  0  0  0  0  0
    2.8417   -2.6917    0.0000 C   0  0  0  0  0  0  0  0  0  0  0  0
    3.2167   -4.0667    0.0000 C   0  0  0  0  0  0  0  0  0  0  0  0
    3.4292   -3.2792    0.0000 C   0  0  0  0  0  0  0  0  0  0  0  0
  2  1  1  0
  3  4  1  0
  4  2  1  0
  5  3  1  0
  6  1  1  0
  7  8  1  0
  8  6  1  0
  9  7  1  0
 10  5  1  0
 11  9  1  0
 12  2  2  0
  6 13  1  1
 14 11  1  0
 15  5  2  0
 16  9  2  0
  4 17  1  1
 18  1  1  0
  8 19  1  1
 20 13  1  0
 10 21  1  6
 22 17  1  0
 23 17  1  0
 24 20  2  0
 25 20  1  0
 26 25  2  0
 27 24  1  0
 28 26  1  0
 28 27  2  0
 14 10  1  0
M  END
>  <Curated_InChIs>  (20) 
InChI=1S/C21H29NO6/c1-13(2)19-20(25)22(4)16(10-15-8-6-5-7-9-15)17(23)11-18(24)27-12-14(3)21(26)28-19/h5-9,13-14,16-17,19,23H,10-12H2,1-4H3

>  <threshold>  (20) 
5

>  <pchembl>  (20) 
4.66

>  <Classification>  (20) 
0

>  <source>  (20) 
chembl_28

>  <SMILES>  (20) 
CC(C)[C@@H]1OC(=O)[C@@H](C)COC(=O)C[C@@H](O)[C@H](Cc2ccccc2)N(C)C1=O

>  <InChIKey>  (20) 
FLYPVINMSITAOM-RMRDIRSESA-N

$$$$

     RDKit          2D

 39 42  0  0  0  0  0  0  0  0999 V2000
    6.3109   -2.1690    0.0000 C   0  0  0  0  0  0  0  0  0  0  0  0
    6.3109   -2.9892    0.0000 C   0  0  0  0  0  0  0  0  0  0  0  0
    7.0234   -3.3950    0.0000 C   0  0  0  0  0  0  0  0  0  0  0  0
    7.7347   -2.9837    0.0000 C   0  0  0  0  0  0  0  0  0  0  0  0
    7.7289   -2.1582    0.0000 C   0  0  0  0  0  0  0  0  0  0  0  0
    7.0158   -1.7519    0.0000 C   0  0  0  0  0  0  0  0  0  0  0  0
    8.4484   -3.3930    0.0000 N   0  0  0  0  0  0  0  0  0  0  0  0
    8.4506   -4.2152    0.0000 C   0  0  0  0  0  0  0  0  0  0  0  0
    9.1564   -4.6243    0.0000 C   0  0  0  0  0  0  0  0  0  0  0  0
    9.8685   -4.2114    0.0000 N   0  0  0  0  0  0  0  0  0  0  0  0
    9.8663   -3.3891    0.0000 C   0  0  0  0  0  0  0  0  0  0  0  0
    9.1519   -2.9797    0.0000 C   0  0  0  0  0  0  0  0  0  0  0  0
   10.5809   -4.6232    0.0000 C   0  0  0  0  0  0  0  0  0  0  0  0
   10.5820   -5.4445    0.0000 O   0  0  0  0  0  0  0  0  0  0  0  0
   11.2922   -4.2095    0.0000 C   0  0  0  0  0  0  0  0  0  0  0  0
   12.0007   -4.6224    0.0000 C   0  0  0  0  0  0  0  0  0  0  0  0
   12.7115   -4.2094    0.0000 C   0  0  0  0  0  0  0  0  0  0  0  0
   12.7109   -3.3872    0.0000 C   0  0  0  0  0  0  0  0  0  0  0  0
   11.9935   -2.9797    0.0000 C   0  0  0  0  0  0  0  0  0  0  0  0
   11.2856   -3.3909    0.0000 C   0  0  0  0  0  0  0  0  0  0  0  0
    5.5997   -3.3990    0.0000 C   0  0  0  0  0  0  0  0  0  0  0  0
    4.8872   -2.9915    0.0000 C   0  0  0  0  0  0  0  0  0  0  0  0
    4.1760   -3.4013    0.0000 C   0  0  0  0  0  0  0  0  0  0  0  0
    3.4635   -2.9939    0.0000 C   0  0  0  0  0  0  0  0  0  0  0  0
    4.1774   -4.2226    0.0000 O   0  0  0  0  0  0  0  0  0  0  0  0
    3.4657   -2.1732    0.0000 C   0  0  0  0  0  0  0  0  0  0  0  0
    2.7581   -1.7617    0.0000 C   0  0  0  0  0  0  0  0  0  0  0  0
    2.0460   -2.1756    0.0000 C   0  0  0  0  0  0  0  0  0  0  0  0
    2.0500   -3.0012    0.0000 C   0  0  0  0  0  0  0  0  0  0  0  0
    2.7622   -3.4048    0.0000 C   0  0  0  0  0  0  0  0  0  0  0  0
   13.4216   -2.9768    0.0000 O   0  0  0  0  0  0  0  0  0  0  0  0
   14.1345   -3.3835    0.0000 C   0  0  0  0  0  0  0  0  0  0  0  0
   13.4237   -4.6216    0.0000 O   0  0  0  0  0  0  0  0  0  0  0  0
   13.4244   -5.4429    0.0000 C   0  0  0  0  0  0  0  0  0  0  0  0
    2.7671   -4.2261    0.0000 O   0  0  0  0  0  0  0  0  0  0  0  0
    2.0578   -4.6431    0.0000 C   0  0  0  0  0  0  0  0  0  0  0  0
    1.3329   -1.7650    0.0000 O   0  0  0  0  0  0  0  0  0  0  0  0
    1.3305   -0.9437    0.0000 C   0  0  0  0  0  0  0  0  0  0  0  0
    4.1778   -1.7609    0.0000 O   0  0  0  0  0  0  0  0  0  0  0  0
  1  2  2  0
  2  3  1  0
  3  4  2  0
  4  5  1  0
  5  6  2  0
  6  1  1  0
  7  8  1  0
  7 12  1  0
  8  9  1  0
  9 10  1  0
 10 11  1  0
 11 12  1  0
  4  7  1  0
 10 13  1  0
 13 14  2  0
 13 15  1  0
 15 16  2  0
 16 17  1  0
 17 18  2  0
 18 19  1  0
 19 20  2  0
 20 15  1  0
  2 21  1  0
 21 22  2  0
 22 23  1  0
 23 24  1  0
 23 25  2  0
 24 26  2  0
 26 27  1  0
 27 28  2  0
 28 29  1  0
 29 30  2  0
 30 24  1  0
 18 31  1  0
 31 32  1  0
 17 33  1  0
 33 34  1  0
 30 35  1  0
 35 36  1  0
 28 37  1  0
 37 38  1  0
 26 39  1  0
M  END
>  <Curated_InChIs>  (21) 
InChI=1S/C30H32N2O7/c1-36-23-18-25(34)29(28(19-23)39-4)24(33)10-8-20-6-5-7-22(16-20)31-12-14-32(15-13-31)30(35)21-9-11-26(37-2)27(17-21)38-3/h5-11,16-19,34H,12-15H2,1-4H3

>  <threshold>  (21) 
5

>  <pchembl>  (21) 
4.37

>  <Classification>  (21) 
0

>  <source>  (21) 
chembl_28

>  <SMILES>  (21) 
COc1cc(O)c(C(=O)/C=C/c2cccc(N3CCN(C(=O)c4ccc(OC)c(OC)c4)CC3)c2)c(OC)c1

>  <InChIKey>  (21) 
FNBUOQUSLRXLDX-CSKARUKUSA-N

$$$$

     RDKit          2D

 34 36  0  0  0  0  0  0  0  0999 V2000
    3.0816  -25.3081    0.0000 C   0  0  0  0  0  0  0  0  0  0  0  0
    3.0805  -26.1277    0.0000 C   0  0  0  0  0  0  0  0  0  0  0  0
    3.7885  -26.5366    0.0000 C   0  0  0  0  0  0  0  0  0  0  0  0
    4.4982  -26.1272    0.0000 C   0  0  0  0  0  0  0  0  0  0  0  0
    4.4954  -25.3045    0.0000 C   0  0  0  0  0  0  0  0  0  0  0  0
    3.7867  -24.8993    0.0000 C   0  0  0  0  0  0  0  0  0  0  0  0
    5.2015  -24.8933    0.0000 C   0  0  0  0  0  0  0  0  0  0  0  0
    5.9108  -25.2992    0.0000 C   0  0  0  0  0  0  0  0  0  0  0  0
    6.6169  -24.8879    0.0000 C   0  0  0  0  0  0  0  0  0  0  0  0
    7.3262  -25.2939    0.0000 C   0  0  0  0  0  0  0  0  0  0  0  0
    7.3262  -26.1099    0.0000 C   0  0  0  0  0  0  0  0  0  0  0  0
    8.0346  -26.5158    0.0000 C   0  0  0  0  0  0  0  0  0  0  0  0
    8.7417  -26.1045    0.0000 C   0  0  0  0  0  0  0  0  0  0  0  0
    8.7360  -25.2831    0.0000 C   0  0  0  0  0  0  0  0  0  0  0  0
    8.0270  -24.8809    0.0000 C   0  0  0  0  0  0  0  0  0  0  0  0
    5.2065  -26.5347    0.0000 O   0  0  0  0  0  0  0  0  0  0  0  0
    2.3724  -26.5357    0.0000 O   0  0  0  0  0  0  0  0  0  0  0  0
    3.7843  -24.0821    0.0000 O   0  0  0  0  0  0  0  0  0  0  0  0
    5.2078  -27.3519    0.0000 C   0  0  0  0  0  0  0  0  0  0  0  0
    5.1984  -24.0761    0.0000 O   0  0  0  0  0  0  0  0  0  0  0  0
    2.3718  -27.3529    0.0000 C   0  0  0  0  0  0  0  0  0  0  0  0
    9.4514  -26.5137    0.0000 N   0  0  0  0  0  0  0  0  0  0  0  0
    9.4536  -27.3318    0.0000 C   0  0  0  0  0  0  0  0  0  0  0  0
   10.1593  -27.7367    0.0000 C   0  0  0  0  0  0  0  0  0  0  0  0
   10.8673  -27.3280    0.0000 N   0  0  0  0  0  0  0  0  0  0  0  0
   10.8651  -26.5099    0.0000 C   0  0  0  0  0  0  0  0  0  0  0  0
   10.1549  -26.1005    0.0000 C   0  0  0  0  0  0  0  0  0  0  0  0
   11.5756  -27.7357    0.0000 C   0  0  0  0  0  0  0  0  0  0  0  0
   11.5766  -28.5529    0.0000 O   0  0  0  0  0  0  0  0  0  0  0  0
   12.2827  -27.3262    0.0000 O   0  0  0  0  0  0  0  0  0  0  0  0
   12.9910  -27.7338    0.0000 C   0  0  0  0  0  0  0  0  0  0  0  0
   13.6981  -27.3243    0.0000 C   0  0  0  0  0  0  0  0  0  0  0  0
   12.9920  -28.5510    0.0000 C   0  0  0  0  0  0  0  0  0  0  0  0
   13.6941  -28.1394    0.0000 C   0  0  0  0  0  0  0  0  0  0  0  0
  1  2  2  0
  2  3  1  0
  3  4  2  0
  4  5  1  0
  5  6  2  0
  6  1  1  0
  5  7  1  0
  7  8  1  0
  8  9  2  0
  9 10  1  0
 10 11  2  0
 11 12  1  0
 12 13  2  0
 13 14  1  0
 14 15  2  0
 15 10  1  0
  4 16  1  0
  2 17  1  0
  6 18  1  0
 16 19  1  0
  7 20  2  0
 17 21  1  0
 22 23  1  0
 22 27  1  0
 23 24  1  0
 24 25  1  0
 25 26  1  0
 26 27  1  0
 13 22  1  0
 25 28  1  0
 28 29  2  0
 28 30  1  0
 30 31  1  0
 31 32  1  0
 31 33  1  0
 31 34  1  0
M  END
>  <Curated_InChIs>  (22) 
InChI=1S/C26H32N2O6/c1-26(2,3)34-25(31)28-14-12-27(13-15-28)19-9-6-18(7-10-19)8-11-21(29)24-22(30)16-20(32-4)17-23(24)33-5/h6-11,16-17,30H,12-15H2,1-5H3

>  <threshold>  (22) 
5

>  <pchembl>  (22) 
4.23

>  <Classification>  (22) 
0

>  <source>  (22) 
chembl_28

>  <SMILES>  (22) 
COc1cc(O)c(C(=O)/C=C/c2ccc(N3CCN(C(=O)OC(C)(C)C)CC3)cc2)c(OC)c1

>  <InChIKey>  (22) 
FOQWJOQJVCTWRN-DHZHZOJOSA-N

$$$$

     RDKit          2D

 37 43  0  0  0  0  0  0  0  0999 V2000
    4.1266  -27.2982    0.0000 C   0  0  0  0  0  0  0  0  0  0  0  0
    4.8396  -26.0580    0.0000 C   0  0  0  0  0  0  0  0  0  0  0  0
    5.5550  -26.4672    0.0000 C   0  0  0  0  0  0  0  0  0  0  0  0
    5.5584  -27.3002    0.0000 C   0  0  0  0  0  0  0  0  0  0  0  0
    6.2776  -27.7115    0.0000 Se  0  0  0  0  0  2  0  0  0  0  0  0
    6.2707  -26.0454    0.0000 C   0  0  0  0  0  0  0  0  0  0  0  0
    6.9945  -26.4613    0.0000 C   0  0  0  0  0  0  0  0  0  0  0  0
    6.9974  -27.2982    0.0000 C   0  0  0  0  0  0  0  0  0  0  0  0
    7.7225  -27.7124    0.0000 C   0  0  0  0  0  0  0  0  0  0  0  0
    8.4453  -27.2907    0.0000 C   0  0  0  0  0  0  0  0  0  0  0  0
    8.4383  -26.4506    0.0000 C   0  0  0  0  0  0  0  0  0  0  0  0
    7.7126  -26.0402    0.0000 C   0  0  0  0  0  0  0  0  0  0  0  0
    6.2662  -25.2204    0.0000 C   0  0  0  0  0  0  0  0  0  0  0  0
    9.1624  -27.6986    0.0000 N   0  0  0  0  0  0  0  0  0  0  0  0
    9.1676  -28.5236    0.0000 C   0  0  0  0  0  0  0  0  0  0  0  0
    9.8742  -27.2816    0.0000 C   0  0  0  0  0  0  0  0  0  0  0  0
    3.4118  -27.7101    0.0000 N   0  0  0  0  0  0  0  0  0  0  0  0
    2.6976  -27.2970    0.0000 C   0  0  0  0  0  0  0  0  0  0  0  0
    3.4111  -28.5351    0.0000 C   0  0  0  0  0  0  0  0  0  0  0  0
    6.9316  -24.7319    0.0000 S   0  0  0  0  0  0  0  0  0  0  0  0
    6.6724  -23.9487    0.0000 C   0  0  0  0  0  0  0  0  0  0  0  0
    5.8473  -23.9533    0.0000 C   0  0  0  0  0  0  0  0  0  0  0  0
    5.5968  -24.7393    0.0000 C   0  0  0  0  0  0  0  0  0  0  0  0
    7.1536  -23.2786    0.0000 C   0  0  0  0  0  0  0  0  0  0  0  0
    7.9688  -23.3586    0.0000 N   0  0  0  0  0  0  0  0  0  0  0  0
    6.8082  -22.5250    0.0000 S   0  0  0  0  0  0  0  0  0  0  0  0
    8.3035  -24.1069    0.0000 C   0  0  0  0  0  0  0  0  0  0  0  0
    9.1150  -24.1885    0.0000 C   0  0  0  0  0  0  0  0  0  0  0  0
    9.5954  -23.5247    0.0000 O   0  0  0  0  0  0  0  0  0  0  0  0
    9.2585  -22.7770    0.0000 C   0  0  0  0  0  0  0  0  0  0  0  0
    8.4411  -22.6932    0.0000 C   0  0  0  0  0  0  0  0  0  0  0  0
    2.6983  -26.4720    0.0000 C   0  0  0  0  0  0  0  0  0  0  0  0
    3.4131  -26.0601    0.0000 C   0  0  0  0  0  0  0  0  0  0  0  0
    4.1272  -26.4732    0.0000 C   0  0  0  0  0  0  0  0  0  0  0  0
    4.1253  -28.9482    0.0000 C   0  0  0  0  0  0  0  0  0  0  0  0
    4.8401  -28.5362    0.0000 C   0  0  0  0  0  0  0  0  0  0  0  0
    4.8407  -27.7112    0.0000 C   0  0  0  0  0  0  0  0  0  0  0  0
  7  6  2  0
  1 17  1  0
  3  2  2  0
 17 18  1  0
  2 34  1  0
 17 19  1  0
 13 20  1  0
  7  8  1  0
  3  4  1  0
  8  9  2  0
 34  1  2  0
 20 21  1  0
 21 22  2  0
 22 23  1  0
 23 13  2  0
  9 10  1  0
 21 24  1  0
  1 37  1  0
 10 11  1  0
 24 25  1  0
 24 26  2  0
 25 27  1  0
 37  4  2  0
 11 12  2  0
 12  7  1  0
  6 13  1  0
 25 31  1  0
 27 28  1  0
 28 29  1  0
 29 30  1  0
 30 31  1  0
  3  6  1  0
 18 32  1  0
 10 14  2  3
 32 33  1  0
  4  5  1  0
 33 34  1  0
 14 15  1  0
 19 35  1  0
  5  8  1  0
 35 36  1  0
 14 16  1  0
 36 37  1  0
M  CHG  1  14   1
M  END
>  <Curated_InChIs>  (23) 
InChI=1S/C30H32N3OS2Se/c1-31(2)20-7-8-21-26(18-20)37-29-22-6-4-12-32-11-3-5-19(28(22)32)17-23(29)27(21)24-9-10-25(36-24)30(35)33-13-15-34-16-14-33/h7-10,17-18H,3-6,11-16H2,1-2H3

>  <threshold>  (23) 
5

>  <pchembl>  (23) 
4.85

>  <Classification>  (23) 
0

>  <source>  (23) 
chembl_28

>  <SMILES>  (23) 
C[N+](C)=c1ccc2c(-c3ccc(C(=S)N4CCOCC4)s3)c3cc4c5c(c3[se]c-2c1)CCCN5CCC4

>  <InChIKey>  (23) 
FUCHQPLROZOLSQ-UHFFFAOYSA-N

$$$$

     RDKit          2D

 20 22  0  0  0  0  0  0  0  0999 V2000
   14.2000   -0.8667    0.0000 C   0  0  0  0  0  0  0  0  0  0  0  0
   14.9208   -1.2792    0.0000 C   0  0  0  0  0  0  0  0  0  0  0  0
   13.4833   -1.2792    0.0000 C   0  0  0  0  0  0  0  0  0  0  0  0
   14.2000   -0.0375    0.0000 C   0  0  0  0  0  0  0  0  0  0  0  0
   15.6375   -0.8625    0.0000 C   0  0  0  0  0  0  0  0  0  0  0  0
   15.6375   -0.0292    0.0000 C   0  0  0  0  0  0  0  0  0  0  0  0
   14.9125    0.3833    0.0000 O   0  0  0  0  0  0  0  0  0  0  0  0
   12.7708   -0.8667    0.0000 C   0  0  0  0  0  0  0  0  0  0  0  0
   13.4833    0.3708    0.0000 C   0  0  0  0  0  0  0  0  0  0  0  0
   12.7708   -0.0417    0.0000 C   0  0  0  0  0  0  0  0  0  0  0  0
   14.9250   -2.1042    0.0000 O   0  0  0  0  0  0  0  0  0  0  0  0
   16.3500    0.3833    0.0000 C   0  0  0  0  0  0  0  0  0  0  0  0
   13.4750   -2.1042    0.0000 O   0  0  0  0  0  0  0  0  0  0  0  0
   12.0583   -1.2792    0.0000 O   0  0  0  0  0  0  0  0  0  0  0  0
   12.0583    0.3708    0.0000 O   0  0  0  0  0  0  0  0  0  0  0  0
   16.3458    1.2083    0.0000 C   0  0  0  0  0  0  0  0  0  0  0  0
   17.0625   -0.0292    0.0000 C   0  0  0  0  0  0  0  0  0  0  0  0
   17.7750    0.3833    0.0000 C   0  0  0  0  0  0  0  0  0  0  0  0
   17.0500    1.6208    0.0000 C   0  0  0  0  0  0  0  0  0  0  0  0
   17.7750    1.2083    0.0000 C   0  0  0  0  0  0  0  0  0  0  0  0
  2  1  1  0
  3  1  2  0
  4  1  1  0
  5  2  1  0
  6  7  1  0
  7  4  1  0
  8  3  1  0
  9  4  2  0
 10  9  1  0
 11  2  2  0
 12  6  1  0
 13  3  1  0
 14  8  1  0
 15 10  1  0
 16 12  2  0
 17 12  1  0
 18 17  2  0
 19 16  1  0
 20 18  1  0
  8 10  2  0
  5  6  2  0
 19 20  2  0
M  END
>  <Curated_InChIs>  (24) 
InChI=1S/C15H10O5/c16-9-6-11(8-4-2-1-3-5-8)20-12-7-10(17)14(18)15(19)13(9)12/h1-7,17-19H

>  <threshold>  (24) 
5

>  <pchembl>  (24) 
4.39

>  <Classification>  (24) 
0

>  <source>  (24) 
chembl_28

>  <SMILES>  (24) 
O=c1cc(-c2ccccc2)oc2cc(O)c(O)c(O)c12

>  <InChIKey>  (24) 
FXNFHKRTJBSTCS-UHFFFAOYSA-N

$$$$

     RDKit          2D

 33 38  0  0  0  0  0  0  0  0999 V2000
   -3.3401   -9.0398    0.0000 C   0  0  0  0  0  0  0  0  0  0  0  0
   -2.6271   -7.7997    0.0000 C   0  0  0  0  0  0  0  0  0  0  0  0
   -1.9117   -8.2088    0.0000 C   0  0  0  0  0  0  0  0  0  0  0  0
   -1.9083   -9.0419    0.0000 C   0  0  0  0  0  0  0  0  0  0  0  0
   -1.1891   -9.4532    0.0000 Se  0  0  0  0  0  2  0  0  0  0  0  0
   -1.1959   -7.7870    0.0000 C   0  0  0  0  0  0  0  0  0  0  0  0
   -0.4721   -8.2029    0.0000 C   0  0  0  0  0  0  0  0  0  0  0  0
   -0.4692   -9.0399    0.0000 C   0  0  0  0  0  0  0  0  0  0  0  0
    0.2559   -9.4540    0.0000 C   0  0  0  0  0  0  0  0  0  0  0  0
    0.9786   -9.0324    0.0000 C   0  0  0  0  0  0  0  0  0  0  0  0
    0.9716   -8.1923    0.0000 C   0  0  0  0  0  0  0  0  0  0  0  0
    0.2459   -7.7819    0.0000 C   0  0  0  0  0  0  0  0  0  0  0  0
   -1.2005   -6.9621    0.0000 C   0  0  0  0  0  0  0  0  0  0  0  0
   -0.4840   -6.5501    0.0000 C   0  0  0  0  0  0  0  0  0  0  0  0
   -1.2014   -5.3170    0.0000 C   0  0  0  0  0  0  0  0  0  0  0  0
   -1.9155   -5.7352    0.0000 C   0  0  0  0  0  0  0  0  0  0  0  0
   -0.4865   -5.7296    0.0000 C   0  0  0  0  0  0  0  0  0  0  0  0
   -1.9146   -6.5591    0.0000 C   0  0  0  0  0  0  0  0  0  0  0  0
    1.6957   -9.4403    0.0000 N   0  0  0  0  0  0  0  0  0  0  0  0
    1.7010  -10.2653    0.0000 C   0  0  0  0  0  0  0  0  0  0  0  0
    2.4075   -9.0232    0.0000 C   0  0  0  0  0  0  0  0  0  0  0  0
   -4.0549   -9.4518    0.0000 N   0  0  0  0  0  0  0  0  0  0  0  0
   -4.7690   -9.0387    0.0000 C   0  0  0  0  0  0  0  0  0  0  0  0
   -4.0555  -10.2768    0.0000 C   0  0  0  0  0  0  0  0  0  0  0  0
    0.2273   -5.3159    0.0000 N   0  0  0  0  0  0  0  0  0  0  0  0
    0.9424   -5.7272    0.0000 C   0  0  0  0  0  0  0  0  0  0  0  0
    0.2259   -4.4909    0.0000 C   0  0  0  0  0  0  0  0  0  0  0  0
   -4.7684   -8.2137    0.0000 C   0  0  0  0  0  0  0  0  0  0  0  0
   -4.0536   -7.8018    0.0000 C   0  0  0  0  0  0  0  0  0  0  0  0
   -3.3394   -8.2148    0.0000 C   0  0  0  0  0  0  0  0  0  0  0  0
   -3.3414  -10.6898    0.0000 C   0  0  0  0  0  0  0  0  0  0  0  0
   -2.6266  -10.2779    0.0000 C   0  0  0  0  0  0  0  0  0  0  0  0
   -2.6259   -9.4529    0.0000 C   0  0  0  0  0  0  0  0  0  0  0  0
 15 16  2  0
  4  5  1  0
  5  8  1  0
  7  6  2  0
  3  2  2  0
 13 18  2  0
 14 17  2  0
 17 15  1  0
 16 18  1  0
  2 30  1  0
 10 19  2  3
  7  8  1  0
 19 20  1  0
  3  4  1  0
 19 21  1  0
  8  9  2  0
  1 22  1  0
 30  1  2  0
 22 23  1  0
  9 10  1  0
 22 24  1  0
  1 33  1  0
 17 25  1  0
 10 11  1  0
 25 26  1  0
 33  4  2  0
 25 27  1  0
 11 12  2  0
 23 28  1  0
 12  7  1  0
 28 29  1  0
 29 30  1  0
  6 13  1  0
 24 31  1  0
 13 14  1  0
 31 32  1  0
  3  6  1  0
 32 33  1  0
M  CHG  1  19   1
M  END
>  <Curated_InChIs>  (25) 
InChI=1S/C29H32N3Se/c1-30(2)21-10-5-8-19(16-21)27-23-13-12-22(31(3)4)18-26(23)33-29-24-11-7-15-32-14-6-9-20(28(24)32)17-25(27)29/h5,8,10,12-13,16-18H,6-7,9,11,14-15H2,1-4H3

>  <threshold>  (25) 
5

>  <pchembl>  (25) 
4.63

>  <Classification>  (25) 
0

>  <source>  (25) 
chembl_28

>  <SMILES>  (25) 
CN(C)c1cccc(-c2c3ccc(=[N+](C)C)cc-3[se]c3c4c5c(cc23)CCCN5CCC4)c1

>  <InChIKey>  (25) 
GRLZPGYRQWWCJS-UHFFFAOYSA-N

$$$$

     RDKit          2D

 32 35  0  0  0  0  0  0  0  0999 V2000
   -2.6111    0.7486    0.0000 C   0  0  0  0  0  0  0  0  0  0  0  0
   -2.6111   -0.7486    0.0000 C   0  0  0  0  0  0  0  0  0  0  0  0
   -1.2964   -1.4973    0.0000 C   0  0  0  0  0  0  0  0  0  0  0  0
    0.0000   -0.7486    0.0000 C   0  0  0  0  0  0  0  0  0  0  0  0
    1.2964   -1.4973    0.0000 C   0  0  0  0  0  0  0  0  0  0  0  0
    2.5929   -0.7486    0.0000 C   0  0  0  0  0  0  0  0  0  0  0  0
    2.5929    0.7486    0.0000 C   0  0  0  0  0  0  0  0  0  0  0  0
    1.2964    1.4973    0.0000 C   0  0  0  0  0  0  0  0  0  0  0  0
    0.0000    0.7486    0.0000 C   0  0  0  0  0  0  0  0  0  0  0  0
   -1.2964    1.4973    0.0000 O   0  0  0  0  0  0  0  0  0  0  0  0
   -1.2928   -2.6973    0.0000 O   0  0  0  0  0  0  0  0  0  0  0  0
   -3.9086    1.5029    0.0000 N   0  0  0  0  0  0  0  0  0  0  0  0
   -3.9097    3.0028    0.0000 C   0  0  0  0  0  0  0  0  0  0  0  0
   -5.2093    3.7519    0.0000 C   0  0  0  0  0  0  0  0  0  0  0  0
   -6.5078    3.0010    0.0000 N   0  0  0  0  0  0  0  0  0  0  0  0
   -6.5067    1.5010    0.0000 C   0  0  0  0  0  0  0  0  0  0  0  0
   -5.2071    0.7519    0.0000 C   0  0  0  0  0  0  0  0  0  0  0  0
   -7.8096    3.7478    0.0000 C   0  0  0  0  0  0  0  0  0  0  0  0
   -9.1077    2.9946    0.0000 C   0  0  0  0  0  0  0  0  0  0  0  0
  -10.4096    3.7414    0.0000 C   0  0  0  0  0  0  0  0  0  0  0  0
  -11.7081    2.9905    0.0000 C   0  0  0  0  0  0  0  0  0  0  0  0
  -13.0077    3.7396    0.0000 C   0  0  0  0  0  0  0  0  0  0  0  0
  -13.0088    5.2396    0.0000 C   0  0  0  0  0  0  0  0  0  0  0  0
  -11.7103    5.9905    0.0000 C   0  0  0  0  0  0  0  0  0  0  0  0
  -10.4107    5.2415    0.0000 C   0  0  0  0  0  0  0  0  0  0  0  0
    3.8911    1.5017    0.0000 O   0  0  0  0  0  0  0  0  0  0  0  0
    3.8894    2.7017    0.0000 C   0  0  0  0  0  0  0  0  0  0  0  0
    1.2995   -2.9981    0.0000 O   0  0  0  0  0  0  0  0  0  0  0  0
    2.3396   -3.5967    0.0000 C   0  0  0  0  0  0  0  0  0  0  0  0
  -14.3076    5.9917    0.0000 N   0  0  0  0  0  0  0  0  0  0  0  0
  -14.3067    7.1917    0.0000 O   0  0  0  0  0  0  0  0  0  0  0  0
  -15.3474    5.3928    0.0000 O   0  0  0  0  0  0  0  0  0  0  0  0
  1  2  2  0
  2  3  1  0
  3  4  1  0
  4  5  2  0
  5  6  1  0
  6  7  2  0
  7  8  1  0
  8  9  2  0
  4  9  1  0
  9 10  1  0
  1 10  1  0
  3 11  2  0
 12 13  1  0
 13 14  1  0
 14 15  1  0
 15 16  1  0
 16 17  1  0
 12 17  1  0
 18 19  1  0
 19 20  1  0
 20 21  2  0
 21 22  1  0
 22 23  2  0
 23 24  1  0
 24 25  2  0
 20 25  1  0
 15 18  1  0
  1 12  1  0
 26 27  1  0
  7 26  1  0
 28 29  1  0
  5 28  1  0
 30 31  2  0
 30 32  1  0
 23 30  1  0
M  CHG  2  30   1  32  -1
M  END
>  <Curated_InChIs>  (26) 
InChI=1S/C23H25N3O6/c1-30-18-13-20(31-2)23-19(27)15-22(32-21(23)14-18)25-11-9-24(10-12-25)8-7-16-3-5-17(6-4-16)26(28)29/h3-6,13-15H,7-12H2,1-2H3

>  <threshold>  (26) 
5

>  <pchembl>  (26) 
4.48

>  <Classification>  (26) 
0

>  <source>  (26) 
chembl_28

>  <SMILES>  (26) 
COc1cc(OC)c2c(=O)cc(N3CCN(CCc4ccc([N+](=O)[O-])cc4)CC3)oc2c1

>  <InChIKey>  (26) 
GUOUAMXYOJDXCN-UHFFFAOYSA-N

$$$$

     RDKit          2D

 32 33  0  0  0  0  0  0  0  0999 V2000
    7.4292   -6.2417    0.0000 N   0  0  0  0  0  0  0  0  0  0  0  0
    7.4167   -7.9667    0.0000 C   0  0  0  0  0  0  0  0  0  0  0  0
    3.3667   -6.5292    0.0000 C   0  0  0  0  0  0  0  0  0  0  0  0
    4.3542   -6.2792    0.0000 C   0  0  0  0  0  0  0  0  0  0  0  0
    6.3542   -6.2375    0.0000 C   0  0  0  0  0  0  0  0  0  0  0  0
    4.8917   -8.7667    0.0000 C   0  0  0  0  0  0  0  0  0  0  0  0
    4.3417   -7.8042    0.0000 O   0  0  0  0  0  0  0  0  0  0  0  0
    5.8167   -8.7792    0.0000 C   0  0  0  0  0  0  0  0  0  0  0  0
    6.2542   -7.9667    0.0000 C   0  0  0  0  0  0  0  0  0  0  0  0
    5.0667   -5.5542    0.0000 O   0  0  0  0  0  0  0  0  0  0  0  0
    3.3667   -7.5417    0.0000 C   0  0  0  0  0  0  0  0  0  0  0  0
    5.8917   -5.5542    0.0000 C   0  0  0  0  0  0  0  0  0  0  0  0
    7.9917   -8.5417    0.0000 C   0  0  0  0  0  0  0  0  0  0  0  0
    5.2292   -6.7792    0.0000 O   0  0  0  0  0  0  0  0  0  0  0  0
    6.0167   -6.8000    0.0000 O   0  0  0  0  0  0  0  0  0  0  0  0
    4.4667   -9.4792    0.0000 O   0  0  0  0  0  0  0  0  0  0  0  0
    5.5417   -7.5542    0.0000 O   0  0  0  0  0  0  0  0  0  0  0  0
    8.0792   -5.7292    0.0000 C   0  0  0  0  0  0  0  0  0  0  0  0
    4.7417   -7.7667    0.0000 C   0  0  0  0  0  0  0  0  0  0  0  0
    8.7917   -8.3292    0.0000 C   0  0  0  0  0  0  0  0  0  0  0  0
    2.5667   -5.9042    0.0000 C   0  0  0  0  0  0  0  0  0  0  0  0
    4.5167   -6.9667    0.0000 O   0  0  0  0  0  0  0  0  0  0  0  0
    2.4917   -8.0542    0.0000 C   0  0  0  0  0  0  0  0  0  0  0  0
    9.0042   -7.5417    0.0000 C   0  0  0  0  0  0  0  0  0  0  0  0
    9.3667   -8.9167    0.0000 C   0  0  0  0  0  0  0  0  0  0  0  0
    3.7167   -6.7417    0.0000 C   0  0  0  0  0  0  0  0  0  0  0  0
    1.6167   -7.5417    0.0000 C   0  0  0  0  0  0  0  0  0  0  0  0
    0.7417   -8.0417    0.0000 C   0  0  0  0  0  0  0  0  0  0  0  0
   -0.1333   -7.5417    0.0000 C   0  0  0  0  0  0  0  0  0  0  0  0
   10.1667   -8.7042    0.0000 C   0  0  0  0  0  0  0  0  0  0  0  0
    9.7917   -7.3292    0.0000 C   0  0  0  0  0  0  0  0  0  0  0  0
   10.3792   -7.9167    0.0000 C   0  0  0  0  0  0  0  0  0  0  0  0
  2  1  1  0
  3  4  1  0
  4 10  1  0
  5  1  1  0
  6  8  1  0
  7  6  1  0
  8  9  1  0
  9  2  1  0
 10 12  1  0
 11  3  1  0
 12  5  1  0
  2 13  1  1
 14  4  2  0
 15  5  2  0
 16  6  2  0
  9 17  1  6
 18  1  1  0
 19 17  1  0
 20 13  1  0
  3 21  1  6
 22 19  1  0
 11 23  1  6
 24 20  2  0
 25 20  1  0
 26 22  1  0
 27 23  1  0
 28 27  1  0
 29 28  1  0
 30 25  2  0
 31 24  1  0
 32 30  1  0
 11  7  1  0
 32 31  2  0
M  END
>  <Curated_InChIs>  (27) 
InChI=1S/C24H35NO7/c1-5-6-12-20-17(2)24(28)30-15-22(26)25(3)19(13-18-10-8-7-9-11-18)21(31-16-29-4)14-23(27)32-20/h7-11,17,19-21H,5-6,12-16H2,1-4H3

>  <threshold>  (27) 
5

>  <pchembl>  (27) 
4.93

>  <Classification>  (27) 
0

>  <source>  (27) 
chembl_28

>  <SMILES>  (27) 
CCCC[C@H]1OC(=O)C[C@H](OCOC)[C@H](Cc2ccccc2)N(C)C(=O)COC(=O)[C@H]1C

>  <InChIKey>  (27) 
HAHGQVNMKLTSCY-WJMWBRGCSA-N

$$$$

     RDKit          2D

 45 52  0  0  0  0  0  0  0  0999 V2000
   -2.3471   -1.1840    0.0000 C   0  0  0  0  0  0  0  0  0  0  0  0
   -1.9344    0.0875    0.0000 C   0  0  0  0  0  0  0  0  0  0  0  0
   -2.5997   -0.3994    0.0000 C   0  0  0  0  0  0  0  0  0  0  0  0
   -1.2647   -0.3994    0.0000 N   0  0  0  0  0  0  0  0  0  0  0  0
   -1.5274   -1.1868    0.0000 C   0  0  0  0  0  0  0  0  0  0  0  0
    0.0959   -0.8533    0.0000 C   0  0  0  0  0  0  0  0  0  0  0  0
   -0.4545   -0.2298    0.0000 C   0  0  0  0  0  0  0  0  0  0  0  0
   -0.1668   -1.6407    0.0000 N   0  0  0  0  0  0  0  0  0  0  0  0
   -0.9757   -1.8032    0.0000 C   0  0  0  0  0  0  0  0  0  0  0  0
   -1.0711   -2.6227    0.0000 O   0  0  0  0  0  0  0  0  0  0  0  0
   -0.3213   -2.9668    0.0000 C   0  0  0  0  0  0  0  0  0  0  0  0
    0.2376   -2.3599    0.0000 C   0  0  0  0  0  0  0  0  0  0  0  0
   -0.1944    0.5536    0.0000 O   0  0  0  0  0  0  0  0  0  0  0  0
    0.9048   -0.6888    0.0000 C   0  0  0  0  0  0  0  0  0  0  0  0
    1.1668    0.0938    0.0000 C   0  0  0  0  0  0  0  0  0  0  0  0
    1.9793    0.2566    0.0000 C   0  0  0  0  0  0  0  0  0  0  0  0
    2.2413    1.0385    0.0000 C   0  0  0  0  0  0  0  0  0  0  0  0
    1.6942    1.6577    0.0000 C   0  0  0  0  0  0  0  0  0  0  0  0
    0.8817    1.4898    0.0000 C   0  0  0  0  0  0  0  0  0  0  0  0
    0.6234    0.7082    0.0000 C   0  0  0  0  0  0  0  0  0  0  0  0
    1.0575   -2.4554    0.0000 O   0  0  0  0  0  0  0  0  0  0  0  0
   -0.9130   -3.5476    0.0000 C   0  0  0  0  0  0  0  0  0  0  0  0
   -1.7083   -3.3266    0.0000 C   0  0  0  0  0  0  0  0  0  0  0  0
   -0.7068   -4.3469    0.0000 C   0  0  0  0  0  0  0  0  0  0  0  0
    0.3877   -3.3767    0.0000 N   0  0  0  0  0  0  0  0  0  0  0  0
    0.3872   -4.2021    0.0000 C   0  0  0  0  0  0  0  0  0  0  0  0
    1.1018   -4.6152    0.0000 C   0  0  0  0  0  0  0  0  0  0  0  0
   -0.3279   -4.6144    0.0000 O   0  0  0  0  0  0  0  0  0  0  0  0
    1.0979   -5.4411    0.0000 C   0  0  0  0  0  0  0  0  0  0  0  0
    2.5284   -4.6190    0.0000 N   0  0  0  0  0  0  0  0  0  0  0  0
    1.8134   -4.2014    0.0000 C   0  0  0  0  0  0  0  0  0  0  0  0
    3.2449   -4.2092    0.0000 C   0  0  0  0  0  0  0  0  0  0  0  0
    2.5260   -5.4454    0.0000 C   0  0  0  0  0  0  0  0  0  0  0  0
    1.8078   -5.8503    0.0000 C   0  0  0  0  0  0  0  0  0  0  0  0
    3.2357   -5.8603    0.0000 C   0  0  0  0  0  0  0  0  0  0  0  0
    1.8017   -6.6701    0.0000 C   0  0  0  0  0  0  0  0  0  0  0  0
    1.0862   -7.0707    0.0000 C   0  0  0  0  0  0  0  0  0  0  0  0
    1.0753   -7.8923    0.0000 C   0  0  0  0  0  0  0  0  0  0  0  0
    1.7859   -8.3116    0.0000 C   0  0  0  0  0  0  0  0  0  0  0  0
    3.2256   -6.6863    0.0000 C   0  0  0  0  0  0  0  0  0  0  0  0
    2.5096   -7.0902    0.0000 C   0  0  0  0  0  0  0  0  0  0  0  0
    2.4972   -7.9086    0.0000 C   0  0  0  0  0  0  0  0  0  0  0  0
    3.4891   -7.9903    0.0000 N   0  0  0  0  0  0  0  0  0  0  0  0
    3.8309   -7.2426    0.0000 C   0  0  0  0  0  0  0  0  0  0  0  0
   -1.6966   -2.2094    0.0000 O   0  0  0  0  0  0  0  0  0  0  0  0
 11 22  1  0
  4  2  1  0
 22 23  1  0
  9 10  1  0
 22 24  1  0
 10 11  1  0
 11 25  1  6
 11 12  1  0
 25 26  1  0
 12  8  1  0
 27 26  1  1
  2  3  1  0
 26 28  2  0
 27 29  1  0
  7 13  2  0
  4  7  1  0
  6 14  1  6
 27 31  1  0
 29 34  2  0
 33 30  1  0
 30 31  1  0
  5  9  1  0
 30 32  1  0
 33 34  1  0
 14 15  1  0
  8  6  1  0
 15 16  2  0
 33 35  1  6
 34 36  1  0
 40 35  1  0
  6  7  1  0
 41 36  2  0
 16 17  1  0
 36 37  1  0
  8  9  1  0
 37 38  2  0
 17 18  2  0
 38 39  1  0
 39 42  2  0
 40 41  1  0
  3  1  1  0
 18 19  1  0
  4  5  1  0
 19 20  2  0
 20 15  1  0
 41 42  1  0
 42 43  1  0
 43 44  1  0
 44 40  2  0
  5  1  1  6
 12 21  2  0
  9 45  1  6
M  END
>  <Curated_InChIs>  (28) 
InChI=1S/C35H39N5O5/c1-20(2)34(37-31(41)23-16-25-24-11-7-12-26-30(24)22(18-36-26)17-27(25)38(3)19-23)33(43)40-28(15-21-9-5-4-6-10-21)32(42)39-14-8-13-29(39)35(40,44)45-34/h4-7,9-12,16,18,20,23,27-29,36,44H,8,13-15,17,19H2,1-3H3,(H,37,41)

>  <threshold>  (28) 
5

>  <pchembl>  (28) 
4.37, 4.88

>  <Classification>  (28) 
0

>  <source>  (28) 
chembl_28

>  <SMILES>  (28) 
CC(C)[C@@]1(NC(=O)[C@@H]2C=C3c4cccc5[nH]cc(c45)C[C@H]3N(C)C2)O[C@@]2(O)[C@@H]3CCCN3C(=O)[C@H](Cc3ccccc3)N2C1=O

>  <InChIKey>  (28) 
HEFIYUQVAZFDEE-MKTPKCENSA-N

$$$$

     RDKit          2D

 26 29  0  0  0  0  0  0  0  0999 V2000
   24.5143   -2.4144    0.0000 C   0  0  0  0  0  0  0  0  0  0  0  0
   24.5132   -3.2339    0.0000 C   0  0  0  0  0  0  0  0  0  0  0  0
   25.2212   -3.6429    0.0000 C   0  0  0  0  0  0  0  0  0  0  0  0
   25.2194   -2.0055    0.0000 C   0  0  0  0  0  0  0  0  0  0  0  0
   25.9281   -2.4108    0.0000 C   0  0  0  0  0  0  0  0  0  0  0  0
   25.9269   -3.2314    0.0000 C   0  0  0  0  0  0  0  0  0  0  0  0
   26.6331   -3.6405    0.0000 C   0  0  0  0  0  0  0  0  0  0  0  0
   27.3450   -3.2334    0.0000 C   0  0  0  0  0  0  0  0  0  0  0  0
   27.3461   -2.4128    0.0000 N   0  0  0  0  0  0  0  0  0  0  0  0
   26.6354   -1.9992    0.0000 C   0  0  0  0  0  0  0  0  0  0  0  0
   28.0548   -2.0059    0.0000 C   0  0  0  0  0  0  0  0  0  0  0  0
   28.7615   -2.4162    0.0000 C   0  0  0  0  0  0  0  0  0  0  0  0
   29.4702   -2.0093    0.0000 O   0  0  0  0  0  0  0  0  0  0  0  0
   30.1770   -2.4196    0.0000 C   0  0  0  0  0  0  0  0  0  0  0  0
   30.1736   -3.2368    0.0000 C   0  0  0  0  0  0  0  0  0  0  0  0
   31.5885   -2.4187    0.0000 C   0  0  0  0  0  0  0  0  0  0  0  0
   30.8820   -2.0122    0.0000 C   0  0  0  0  0  0  0  0  0  0  0  0
   31.5891   -3.2401    0.0000 C   0  0  0  0  0  0  0  0  0  0  0  0
   30.8800   -3.6421    0.0000 C   0  0  0  0  0  0  0  0  0  0  0  0
   30.8737   -4.4527    0.0000 O   0  0  0  0  0  0  0  0  0  0  0  0
   31.5747   -4.8674    0.0000 C   0  0  0  0  0  0  0  0  0  0  0  0
   32.2838   -4.4654    0.0000 C   0  0  0  0  0  0  0  0  0  0  0  0
   32.2919   -3.6487    0.0000 C   0  0  0  0  0  0  0  0  0  0  0  0
   31.5672   -5.6846    0.0000 O   0  0  0  0  0  0  0  0  0  0  0  0
   32.9879   -4.8802    0.0000 C   0  0  0  0  0  0  0  0  0  0  0  0
   33.0022   -3.2446    0.0000 C   0  0  0  0  0  0  0  0  0  0  0  0
  1  2  2  0
  2  3  1  0
  3  6  2  0
  5  4  2  0
  4  1  1  0
  5  6  1  0
  5 10  1  0
  6  7  1  0
  7  8  1  0
  8  9  1  0
  9 10  1  0
  9 11  1  0
 11 12  1  0
 12 13  1  0
 13 14  1  0
 14 15  2  0
 15 19  1  0
 18 16  1  0
 16 17  2  0
 17 14  1  0
 18 19  2  0
 18 23  1  0
 19 20  1  0
 20 21  1  0
 21 22  1  0
 22 23  2  0
 21 24  2  0
 22 25  1  0
 23 26  1  0
M  END
>  <Curated_InChIs>  (29) 
InChI=1S/C22H23NO3/c1-15-16(2)22(24)26-21-13-19(7-8-20(15)21)25-12-11-23-10-9-17-5-3-4-6-18(17)14-23/h3-8,13H,9-12,14H2,1-2H3

>  <threshold>  (29) 
5

>  <pchembl>  (29) 
4.82

>  <Classification>  (29) 
0

>  <source>  (29) 
chembl_28

>  <SMILES>  (29) 
Cc1c(C)c2ccc(OCCN3CCc4ccccc4C3)cc2oc1=O

>  <InChIKey>  (29) 
HQTNGNNCVJXQRC-UHFFFAOYSA-N

$$$$

     RDKit          2D

 29 30  0  0  0  0  0  0  0  0999 V2000
   28.4765   -9.4224    0.0000 C   0  0  0  0  0  0  0  0  0  0  0  0
   28.4753  -10.2420    0.0000 C   0  0  0  0  0  0  0  0  0  0  0  0
   29.1834  -10.6509    0.0000 C   0  0  0  0  0  0  0  0  0  0  0  0
   29.8930  -10.2415    0.0000 C   0  0  0  0  0  0  0  0  0  0  0  0
   29.8902   -9.4188    0.0000 C   0  0  0  0  0  0  0  0  0  0  0  0
   29.1816   -9.0136    0.0000 C   0  0  0  0  0  0  0  0  0  0  0  0
   30.5964   -9.0076    0.0000 C   0  0  0  0  0  0  0  0  0  0  0  0
   31.3056   -9.4135    0.0000 C   0  0  0  0  0  0  0  0  0  0  0  0
   32.0118   -9.0022    0.0000 C   0  0  0  0  0  0  0  0  0  0  0  0
   32.7210   -9.4082    0.0000 C   0  0  0  0  0  0  0  0  0  0  0  0
   32.7210  -10.2242    0.0000 C   0  0  0  0  0  0  0  0  0  0  0  0
   33.4294  -10.6301    0.0000 C   0  0  0  0  0  0  0  0  0  0  0  0
   34.1365  -10.2188    0.0000 C   0  0  0  0  0  0  0  0  0  0  0  0
   34.1308   -9.3974    0.0000 C   0  0  0  0  0  0  0  0  0  0  0  0
   33.4218   -8.9952    0.0000 C   0  0  0  0  0  0  0  0  0  0  0  0
   30.6014  -10.6490    0.0000 O   0  0  0  0  0  0  0  0  0  0  0  0
   27.7673  -10.6500    0.0000 O   0  0  0  0  0  0  0  0  0  0  0  0
   27.7687   -9.0140    0.0000 C   0  0  0  0  0  0  0  0  0  0  0  0
   29.1791   -8.1964    0.0000 O   0  0  0  0  0  0  0  0  0  0  0  0
   30.6027  -11.4662    0.0000 C   0  0  0  0  0  0  0  0  0  0  0  0
   30.5933   -8.1904    0.0000 O   0  0  0  0  0  0  0  0  0  0  0  0
   27.7666  -11.4672    0.0000 C   0  0  0  0  0  0  0  0  0  0  0  0
   27.0610   -9.4228    0.0000 C   0  0  0  0  0  0  0  0  0  0  0  0
   26.3532   -9.0143    0.0000 C   0  0  0  0  0  0  0  0  0  0  0  0
   25.6456   -9.4231    0.0000 C   0  0  0  0  0  0  0  0  0  0  0  0
   26.3530   -8.1971    0.0000 C   0  0  0  0  0  0  0  0  0  0  0  0
   34.8463  -10.6237    0.0000 N   0  0  0  0  0  0  0  0  0  0  0  0
   34.8505  -11.4409    0.0000 C   0  0  0  0  0  0  0  0  0  0  0  0
   35.5519  -10.2115    0.0000 C   0  0  0  0  0  0  0  0  0  0  0  0
  1  2  2  0
  2  3  1  0
  3  4  2  0
  4  5  1  0
  5  6  2  0
  6  1  1  0
  5  7  1  0
  7  8  1  0
  8  9  2  0
  9 10  1  0
 10 11  2  0
 11 12  1  0
 12 13  2  0
 13 14  1  0
 14 15  2  0
 15 10  1  0
  4 16  1  0
  2 17  1  0
  1 18  1  0
  6 19  1  0
 16 20  1  0
  7 21  2  0
 17 22  1  0
 18 23  1  0
 23 24  2  3
 24 25  1  0
 24 26  1  0
 13 27  1  0
 27 28  1  0
 27 29  1  0
M  END
>  <Curated_InChIs>  (30) 
InChI=1S/C24H29NO4/c1-16(2)7-13-19-21(28-5)15-22(29-6)23(24(19)27)20(26)14-10-17-8-11-18(12-9-17)25(3)4/h7-12,14-15,27H,13H2,1-6H3

>  <threshold>  (30) 
5

>  <pchembl>  (30) 
4.76

>  <Classification>  (30) 
0

>  <source>  (30) 
chembl_28

>  <SMILES>  (30) 
COc1cc(OC)c(C(=O)/C=C/c2ccc(N(C)C)cc2)c(O)c1CC=C(C)C

>  <InChIKey>  (30) 
HSFXRTBLDWBKAW-GXDHUFHOSA-N

$$$$

     RDKit          2D

 29 31  0  0  0  0  0  0  0  0999 V2000
    6.9417   -2.3667    0.0000 C   0  0  0  0  0  0  0  0  0  0  0  0
    6.6792   -2.9542    0.0000 C   0  0  0  0  0  0  0  0  0  0  0  0
    5.9667   -3.1417    0.0000 N   0  0  0  0  0  0  0  0  0  0  0  0
    5.9292   -1.6042    0.0000 S   0  0  0  0  0  0  0  0  0  0  0  0
    6.6042   -1.7042    0.0000 C   0  0  0  0  0  0  0  0  0  0  0  0
    5.4042   -2.6667    0.0000 C   0  0  0  0  0  0  0  0  0  0  0  0
    5.4042   -2.0292    0.0000 C   0  0  0  0  0  0  0  0  0  0  0  0
    7.7167   -2.3667    0.0000 O   0  0  0  0  0  0  0  0  0  0  0  0
    5.9667   -3.9917    0.0000 C   0  0  0  0  0  0  0  0  0  0  0  0
    7.2292   -1.3042    0.0000 C   0  0  0  0  0  0  0  0  0  0  0  0
    8.2917   -2.7167    0.0000 C   0  0  0  0  0  0  0  0  0  0  0  0
    7.1667   -3.4792    0.0000 O   0  0  0  0  0  0  0  0  0  0  0  0
    8.2917   -3.4167    0.0000 O   0  0  0  0  0  0  0  0  0  0  0  0
    7.8292   -1.6167    0.0000 C   0  0  0  0  0  0  0  0  0  0  0  0
    7.2292   -0.5917    0.0000 C   0  0  0  0  0  0  0  0  0  0  0  0
    6.6167   -4.3792    0.0000 C   0  0  0  0  0  0  0  0  0  0  0  0
    6.6167   -5.1292    0.0000 N   0  0  0  0  0  0  0  0  0  0  0  0
    8.4042   -0.5917    0.0000 C   0  0  0  0  0  0  0  0  0  0  0  0
    7.8292   -0.2292    0.0000 C   0  0  0  0  0  0  0  0  0  0  0  0
    8.4042   -1.2792    0.0000 C   0  0  0  0  0  0  0  0  0  0  0  0
    4.7667   -3.0417    0.0000 C   0  0  0  0  0  0  0  0  0  0  0  0
    8.9792   -0.2542    0.0000 O   0  0  0  0  0  0  0  0  0  0  0  0
    4.7667   -1.6417    0.0000 C   0  0  0  0  0  0  0  0  0  0  0  0
    8.9167   -2.3667    0.0000 C   0  0  0  0  0  0  0  0  0  0  0  0
    7.2417   -5.4667    0.0000 C   0  0  0  0  0  0  0  0  0  0  0  0
    6.0417   -5.4292    0.0000 C   0  0  0  0  0  0  0  0  0  0  0  0
    9.6292   -0.5917    0.0000 C   0  0  0  0  0  0  0  0  0  0  0  0
    4.1417   -2.7167    0.0000 C   0  0  0  0  0  0  0  0  0  0  0  0
    4.1417   -1.9792    0.0000 C   0  0  0  0  0  0  0  0  0  0  0  0
  2  1  1  0
  3  2  1  0
  4  5  1  0
  5  1  1  0
  6  3  1  0
  7  4  1  0
  1  8  1  1
  9  3  1  0
  5 10  1  1
 11  8  1  0
 12  2  2  0
 13 11  2  0
 14 10  2  0
 15 10  1  0
 16  9  1  0
 17 16  1  0
 18 19  1  0
 19 15  2  0
 20 14  1  0
 21  6  2  0
 22 18  1  0
 23  7  2  0
 24 11  1  0
 25 17  1  0
 26 17  1  0
 27 22  1  0
 28 21  1  0
 29 23  1  0
  6  7  1  0
 18 20  2  0
 28 29  2  0
M  END
>  <Curated_InChIs>  (31) 
InChI=1S/C22H26N2O4S/c1-15(25)28-20-21(16-9-11-17(27-4)12-10-16)29-19-8-6-5-7-18(19)24(22(20)26)14-13-23(2)3/h5-12,20-21H,13-14H2,1-4H3

>  <threshold>  (31) 
5

>  <pchembl>  (31) 
4.31, 4.11, 4.37, 4.21

>  <Classification>  (31) 
0

>  <source>  (31) 
chembl_28

>  <SMILES>  (31) 
COc1ccc([C@@H]2Sc3ccccc3N(CCN(C)C)C(=O)[C@@H]2OC(C)=O)cc1

>  <InChIKey>  (31) 
HSUGRBWQSSZJOP-RTWAWAEBSA-N

$$$$

     RDKit          2D

 21 23  0  0  0  0  0  0  0  0999 V2000
    0.6042   -1.5292    0.0000 C   0  0  0  0  0  0  0  0  0  0  0  0
   -0.1083   -1.9417    0.0000 C   0  0  0  0  0  0  0  0  0  0  0  0
   -0.8208   -1.5292    0.0000 C   0  0  0  0  0  0  0  0  0  0  0  0
   -1.5375   -1.9417    0.0000 C   0  0  0  0  0  0  0  0  0  0  0  0
   -1.5375   -2.7667    0.0000 C   0  0  0  0  0  0  0  0  0  0  0  0
    0.6042   -0.7000    0.0000 C   0  0  0  0  0  0  0  0  0  0  0  0
    1.3167   -1.9417    0.0000 C   0  0  0  0  0  0  0  0  0  0  0  0
    2.0375   -0.7000    0.0000 C   0  0  0  0  0  0  0  0  0  0  0  0
    2.0375   -1.5292    0.0000 C   0  0  0  0  0  0  0  0  0  0  0  0
    1.3167   -0.2875    0.0000 C   0  0  0  0  0  0  0  0  0  0  0  0
   -2.2458   -3.1792    0.0000 C   0  0  0  0  0  0  0  0  0  0  0  0
   -0.1083   -2.7667    0.0000 C   0  0  0  0  0  0  0  0  0  0  0  0
   -0.8208   -3.1792    0.0000 C   0  0  0  0  0  0  0  0  0  0  0  0
   -2.2500   -1.5292    0.0000 C   0  0  0  0  0  0  0  0  0  0  0  0
   -2.9708   -2.7667    0.0000 C   0  0  0  0  0  0  0  0  0  0  0  0
   -2.9708   -1.9417    0.0000 C   0  0  0  0  0  0  0  0  0  0  0  0
    1.3167    0.5375    0.0000 O   0  0  0  0  0  0  0  0  0  0  0  0
    2.7542   -1.9417    0.0000 O   0  0  0  0  0  0  0  0  0  0  0  0
   -3.6750   -3.1792    0.0000 O   0  0  0  0  0  0  0  0  0  0  0  0
    2.0292    0.9500    0.0000 C   0  0  0  0  0  0  0  0  0  0  0  0
    3.4667   -1.5250    0.0000 C   0  0  0  0  0  0  0  0  0  0  0  0
  2  1  1  0
  3  2  2  0
  4  3  1  0
  5 13  1  0
  6  1  2  0
  7  1  1  0
  8  9  1  0
  9  7  2  0
 10  6  1  0
 11  5  2  0
 12  2  1  0
 13 12  2  0
 14  4  2  0
 15 11  1  0
 16 14  1  0
 17 10  1  0
 18  9  1  0
 19 15  1  0
 20 17  1  0
 21 18  1  0
  8 10  2  0
  4  5  1  0
 16 15  2  0
M  END
>  <Curated_InChIs>  (32) 
InChI=1S/C18H16O3/c1-20-17-9-15(10-18(11-17)21-2)13-3-4-14-8-16(19)6-5-12(14)7-13/h3-11,19H,1-2H3

>  <threshold>  (32) 
5

>  <pchembl>  (32) 
4.8

>  <Classification>  (32) 
0

>  <source>  (32) 
chembl_28

>  <SMILES>  (32) 
COc1cc(OC)cc(-c2ccc3cc(O)ccc3c2)c1

>  <InChIKey>  (32) 
HYWKEQNSMAOKKU-UHFFFAOYSA-N

$$$$

     RDKit          2D

 26 29  0  0  0  0  0  0  0  0999 V2000
    6.8806    0.3078    0.0000 C   0  0  0  0  0  0  0  0  0  0  0  0
    6.8794   -0.5180    0.0000 C   0  0  0  0  0  0  0  0  0  0  0  0
    7.5929   -0.9300    0.0000 C   0  0  0  0  0  0  0  0  0  0  0  0
    7.5911    0.7197    0.0000 C   0  0  0  0  0  0  0  0  0  0  0  0
    8.3049    0.3114    0.0000 C   0  0  0  0  0  0  0  0  0  0  0  0
    8.3037   -0.5201    0.0000 C   0  0  0  0  0  0  0  0  0  0  0  0
    9.0192   -0.9344    0.0000 Se  0  0  0  0  0  2  0  0  0  0  0  0
    9.0216    0.7283    0.0000 C   0  0  0  0  0  0  0  0  0  0  0  0
    9.7417    0.3093    0.0000 C   0  0  0  0  0  0  0  0  0  0  0  0
    9.7433   -0.5241    0.0000 C   0  0  0  0  0  0  0  0  0  0  0  0
   10.4618   -0.9372    0.0000 C   0  0  0  0  0  0  0  0  0  0  0  0
   11.1835   -0.5215    0.0000 C   0  0  0  0  0  0  0  0  0  0  0  0
   11.1819    0.3120    0.0000 C   0  0  0  0  0  0  0  0  0  0  0  0
   10.4587    0.7297    0.0000 C   0  0  0  0  0  0  0  0  0  0  0  0
   11.8967   -0.9327    0.0000 N   0  0  0  0  0  0  0  0  0  0  0  0
   11.8971   -1.7561    0.0000 C   0  0  0  0  0  0  0  0  0  0  0  0
   12.6095   -0.5208    0.0000 C   0  0  0  0  0  0  0  0  0  0  0  0
    9.0217    1.5517    0.0000 C   0  0  0  0  0  0  0  0  0  0  0  0
    9.7352    1.9578    0.0000 C   0  0  0  0  0  0  0  0  0  0  0  0
    9.7356    2.7803    0.0000 C   0  0  0  0  0  0  0  0  0  0  0  0
    9.0220    3.1929    0.0000 C   0  0  0  0  0  0  0  0  0  0  0  0
    8.3065    2.7768    0.0000 C   0  0  0  0  0  0  0  0  0  0  0  0
    8.3096    1.9556    0.0000 C   0  0  0  0  0  0  0  0  0  0  0  0
    6.1660   -0.9290    0.0000 N   0  0  0  0  0  0  0  0  0  0  0  0
    5.4534   -0.5169    0.0000 C   0  0  0  0  0  0  0  0  0  0  0  0
    6.1654   -1.7524    0.0000 C   0  0  0  0  0  0  0  0  0  0  0  0
  9 14  1  0
 10 11  2  0
 11 12  1  0
 12 13  1  0
 13 14  2  0
  2  3  2  0
 12 15  2  3
  3  6  1  0
 15 16  1  0
  5  8  1  0
 15 17  1  0
  6  7  1  0
  8 18  1  0
  7 10  1  0
 18 19  2  0
  9  8  2  0
 19 20  1  0
  9 10  1  0
 20 21  2  0
 21 22  1  0
  5  4  1  0
 22 23  2  0
 23 18  1  0
  4  1  2  0
  2 24  1  0
  5  6  2  0
 24 25  1  0
  1  2  1  0
 24 26  1  0
M  CHG  1  15   1
M  END
>  <Curated_InChIs>  (33) 
InChI=1S/C23H23N2Se/c1-24(2)17-10-12-19-21(14-17)26-22-15-18(25(3)4)11-13-20(22)23(19)16-8-6-5-7-9-16/h5-15H,1-4H3

>  <threshold>  (33) 
5

>  <pchembl>  (33) 
4.96

>  <Classification>  (33) 
0

>  <source>  (33) 
chembl_28

>  <SMILES>  (33) 
CN(C)c1ccc2c(-c3ccccc3)c3ccc(=[N+](C)C)cc-3[se]c2c1

>  <InChIKey>  (33) 
ICZPPHJGWYRWPV-UHFFFAOYSA-N

$$$$

     RDKit          2D

 32 36  0  0  0  0  0  0  0  0999 V2000
   15.2457  -16.9780    0.0000 C   0  0  0  0  0  0  0  0  0  0  0  0
   15.9554  -16.5685    0.0000 C   0  0  0  0  0  0  0  0  0  0  0  0
   15.9525  -15.7459    0.0000 C   0  0  0  0  0  0  0  0  0  0  0  0
   15.2439  -15.3406    0.0000 C   0  0  0  0  0  0  0  0  0  0  0  0
   14.5377  -16.5690    0.0000 C   0  0  0  0  0  0  0  0  0  0  0  0
   14.5344  -15.7525    0.0000 C   0  0  0  0  0  0  0  0  0  0  0  0
   13.7568  -15.5033    0.0000 C   0  0  0  0  0  0  0  0  0  0  0  0
   13.2795  -16.1658    0.0000 C   0  0  0  0  0  0  0  0  0  0  0  0
   13.7621  -16.8244    0.0000 O   0  0  0  0  0  0  0  0  0  0  0  0
   16.6587  -15.3346    0.0000 C   0  0  0  0  0  0  0  0  0  0  0  0
   17.3679  -15.7405    0.0000 N   0  0  0  0  0  0  0  0  0  0  0  0
   17.3684  -16.5549    0.0000 C   0  0  0  0  0  0  0  0  0  0  0  0
   18.0736  -16.9608    0.0000 C   0  0  0  0  0  0  0  0  0  0  0  0
   18.7822  -16.5530    0.0000 N   0  0  0  0  0  0  0  0  0  0  0  0
   18.7811  -15.7349    0.0000 C   0  0  0  0  0  0  0  0  0  0  0  0
   18.0714  -15.3245    0.0000 C   0  0  0  0  0  0  0  0  0  0  0  0
   19.4899  -16.9616    0.0000 C   0  0  0  0  0  0  0  0  0  0  0  0
   19.4899  -17.7788    0.0000 O   0  0  0  0  0  0  0  0  0  0  0  0
   20.1976  -16.5530    0.0000 C   0  0  0  0  0  0  0  0  0  0  0  0
   20.9053  -16.9616    0.0000 S   0  0  0  0  0  0  0  0  0  0  0  0
   21.6130  -16.5530    0.0000 C   0  0  0  0  0  0  0  0  0  0  0  0
   22.3579  -16.8813    0.0000 N   0  0  0  0  0  0  0  0  0  0  0  0
   22.9047  -16.2740    0.0000 N   0  0  0  0  0  0  0  0  0  0  0  0
   22.4961  -15.5662    0.0000 C   0  0  0  0  0  0  0  0  0  0  0  0
   21.6968  -15.7362    0.0000 O   0  0  0  0  0  0  0  0  0  0  0  0
   22.8258  -14.8221    0.0000 C   0  0  0  0  0  0  0  0  0  0  0  0
   23.6397  -14.7379    0.0000 C   0  0  0  0  0  0  0  0  0  0  0  0
   23.9721  -13.9921    0.0000 C   0  0  0  0  0  0  0  0  0  0  0  0
   23.4915  -13.3301    0.0000 C   0  0  0  0  0  0  0  0  0  0  0  0
   22.6749  -13.4186    0.0000 C   0  0  0  0  0  0  0  0  0  0  0  0
   22.3463  -14.1645    0.0000 C   0  0  0  0  0  0  0  0  0  0  0  0
   23.8229  -12.5831    0.0000 F   0  0  0  0  0  0  0  0  0  0  0  0
  5  1  2  0
  1  2  1  0
  2  3  2  0
  3  4  1  0
  4  6  2  0
  5  6  1  0
  6  7  1  0
  7  8  1  0
  8  9  1  0
  9  5  1  0
  3 10  1  0
 10 11  1  0
 11 12  1  0
 11 16  1  0
 12 13  1  0
 13 14  1  0
 14 15  1  0
 15 16  1  0
 14 17  1  0
 17 18  2  0
 17 19  1  0
 19 20  1  0
 20 21  1  0
 21 22  2  0
 22 23  1  0
 23 24  2  0
 24 25  1  0
 25 21  1  0
 26 27  2  0
 27 28  1  0
 28 29  2  0
 29 30  1  0
 30 31  2  0
 31 26  1  0
 24 26  1  0
 29 32  1  0
M  END
>  <Curated_InChIs>  (34) 
InChI=1S/C23H23FN4O3S/c24-19-4-2-17(3-5-19)22-25-26-23(31-22)32-15-21(29)28-10-8-27(9-11-28)14-16-1-6-20-18(13-16)7-12-30-20/h1-6,13H,7-12,14-15H2

>  <threshold>  (34) 
5

>  <pchembl>  (34) 
4.51

>  <Classification>  (34) 
0

>  <source>  (34) 
chembl_28

>  <SMILES>  (34) 
O=C(CSc1nnc(-c2ccc(F)cc2)o1)N1CCN(Cc2ccc3c(c2)CCO3)CC1

>  <InChIKey>  (34) 
IEXJAHHTWULZER-UHFFFAOYSA-N

$$$$

     RDKit          2D

 27 28  0  0  0  0  0  0  0  0999 V2000
   16.8005   -9.1253    0.0000 C   0  0  0  0  0  0  0  0  0  0  0  0
   16.7994   -9.9448    0.0000 C   0  0  0  0  0  0  0  0  0  0  0  0
   17.5074  -10.3538    0.0000 C   0  0  0  0  0  0  0  0  0  0  0  0
   18.2171   -9.9443    0.0000 C   0  0  0  0  0  0  0  0  0  0  0  0
   18.2143   -9.1217    0.0000 C   0  0  0  0  0  0  0  0  0  0  0  0
   17.5056   -8.7164    0.0000 C   0  0  0  0  0  0  0  0  0  0  0  0
   18.9204   -8.7104    0.0000 C   0  0  0  0  0  0  0  0  0  0  0  0
   19.6297   -9.1163    0.0000 C   0  0  0  0  0  0  0  0  0  0  0  0
   20.3358   -8.7051    0.0000 C   0  0  0  0  0  0  0  0  0  0  0  0
   21.0451   -9.1110    0.0000 C   0  0  0  0  0  0  0  0  0  0  0  0
   21.0451   -9.9271    0.0000 C   0  0  0  0  0  0  0  0  0  0  0  0
   21.7535  -10.3329    0.0000 C   0  0  0  0  0  0  0  0  0  0  0  0
   22.4606   -9.9216    0.0000 C   0  0  0  0  0  0  0  0  0  0  0  0
   22.4549   -9.1002    0.0000 C   0  0  0  0  0  0  0  0  0  0  0  0
   21.7459   -8.6980    0.0000 C   0  0  0  0  0  0  0  0  0  0  0  0
   18.9254  -10.3518    0.0000 O   0  0  0  0  0  0  0  0  0  0  0  0
   16.0914  -10.3528    0.0000 O   0  0  0  0  0  0  0  0  0  0  0  0
   16.0927   -8.7168    0.0000 C   0  0  0  0  0  0  0  0  0  0  0  0
   17.5032   -7.8992    0.0000 O   0  0  0  0  0  0  0  0  0  0  0  0
   18.9267  -11.1690    0.0000 C   0  0  0  0  0  0  0  0  0  0  0  0
   18.9173   -7.8932    0.0000 O   0  0  0  0  0  0  0  0  0  0  0  0
   16.0907  -11.1700    0.0000 C   0  0  0  0  0  0  0  0  0  0  0  0
   15.3851   -9.1256    0.0000 C   0  0  0  0  0  0  0  0  0  0  0  0
   14.6773   -8.7172    0.0000 C   0  0  0  0  0  0  0  0  0  0  0  0
   13.9697   -9.1259    0.0000 C   0  0  0  0  0  0  0  0  0  0  0  0
   14.6771   -7.9000    0.0000 C   0  0  0  0  0  0  0  0  0  0  0  0
   23.1704  -10.3266    0.0000 Cl  0  0  0  0  0  0  0  0  0  0  0  0
  1  2  2  0
  2  3  1  0
  3  4  2  0
  4  5  1  0
  5  6  2  0
  6  1  1  0
  5  7  1  0
  7  8  1  0
  8  9  2  0
  9 10  1  0
 10 11  2  0
 11 12  1  0
 12 13  2  0
 13 14  1  0
 14 15  2  0
 15 10  1  0
  4 16  1  0
  2 17  1  0
  1 18  1  0
  6 19  1  0
 16 20  1  0
  7 21  2  0
 17 22  1  0
 18 23  1  0
 23 24  2  3
 24 25  1  0
 24 26  1  0
 13 27  1  0
M  END
>  <Curated_InChIs>  (35) 
InChI=1S/C22H23ClO4/c1-14(2)5-11-17-19(26-3)13-20(27-4)21(22(17)25)18(24)12-8-15-6-9-16(23)10-7-15/h5-10,12-13,25H,11H2,1-4H3

>  <threshold>  (35) 
5

>  <pchembl>  (35) 
4.66

>  <Classification>  (35) 
0

>  <source>  (35) 
chembl_28

>  <SMILES>  (35) 
COc1cc(OC)c(C(=O)/C=C/c2ccc(Cl)cc2)c(O)c1CC=C(C)C

>  <InChIKey>  (35) 
IPYCPCJUJUOMSX-XYOKQWHBSA-N

$$$$

     RDKit          2D

 32 34  0  0  0  0  0  0  0  0999 V2000
   42.8245  -12.1940    0.0000 C   0  0  0  0  0  0  0  0  0  0  0  0
   42.8244  -13.0142    0.0000 C   0  0  0  0  0  0  0  0  0  0  0  0
   43.5370  -13.4201    0.0000 C   0  0  0  0  0  0  0  0  0  0  0  0
   44.2441  -13.0088    0.0000 C   0  0  0  0  0  0  0  0  0  0  0  0
   44.2384  -12.1832    0.0000 C   0  0  0  0  0  0  0  0  0  0  0  0
   43.5294  -11.7770    0.0000 C   0  0  0  0  0  0  0  0  0  0  0  0
   44.9579  -13.4180    0.0000 N   0  0  0  0  0  0  0  0  0  0  0  0
   44.9601  -14.2403    0.0000 C   0  0  0  0  0  0  0  0  0  0  0  0
   45.6699  -14.6493    0.0000 C   0  0  0  0  0  0  0  0  0  0  0  0
   46.3821  -14.2364    0.0000 N   0  0  0  0  0  0  0  0  0  0  0  0
   46.3799  -13.4142    0.0000 C   0  0  0  0  0  0  0  0  0  0  0  0
   45.6655  -13.0048    0.0000 C   0  0  0  0  0  0  0  0  0  0  0  0
   42.1133  -13.4240    0.0000 C   0  0  0  0  0  0  0  0  0  0  0  0
   41.4008  -13.0166    0.0000 C   0  0  0  0  0  0  0  0  0  0  0  0
   40.6896  -13.4264    0.0000 C   0  0  0  0  0  0  0  0  0  0  0  0
   39.9771  -13.0189    0.0000 C   0  0  0  0  0  0  0  0  0  0  0  0
   40.6910  -14.2477    0.0000 O   0  0  0  0  0  0  0  0  0  0  0  0
   39.9793  -12.1982    0.0000 C   0  0  0  0  0  0  0  0  0  0  0  0
   39.2676  -11.7867    0.0000 C   0  0  0  0  0  0  0  0  0  0  0  0
   38.5555  -12.2007    0.0000 C   0  0  0  0  0  0  0  0  0  0  0  0
   38.5595  -13.0262    0.0000 C   0  0  0  0  0  0  0  0  0  0  0  0
   39.2717  -13.4299    0.0000 C   0  0  0  0  0  0  0  0  0  0  0  0
   39.2766  -14.2512    0.0000 O   0  0  0  0  0  0  0  0  0  0  0  0
   38.5672  -14.6681    0.0000 C   0  0  0  0  0  0  0  0  0  0  0  0
   37.8465  -11.7901    0.0000 O   0  0  0  0  0  0  0  0  0  0  0  0
   37.8441  -10.9688    0.0000 C   0  0  0  0  0  0  0  0  0  0  0  0
   40.6914  -11.7860    0.0000 O   0  0  0  0  0  0  0  0  0  0  0  0
   39.2666  -10.9654    0.0000 C   0  0  0  0  0  0  0  0  0  0  0  0
   39.9780  -10.5560    0.0000 C   0  0  0  0  0  0  0  0  0  0  0  0
   39.9770   -9.7347    0.0000 C   0  0  0  0  0  0  0  0  0  0  0  0
   40.6884   -9.3211    0.0000 C   0  0  0  0  0  0  0  0  0  0  0  0
   40.6874   -8.4998    0.0000 C   0  0  0  0  0  0  0  0  0  0  0  0
  1  2  2  0
  2  3  1  0
  3  4  2  0
  4  5  1  0
  5  6  2  0
  6  1  1  0
  7  8  1  0
  7 12  1  0
  8  9  1  0
  9 10  1  0
 10 11  1  0
 11 12  1  0
  4  7  1  0
  2 13  1  0
 13 14  2  0
 14 15  1  0
 15 16  1  0
 15 17  2  0
 16 18  2  0
 18 19  1  0
 19 20  2  0
 20 21  1  0
 21 22  2  0
 22 16  1  0
 22 23  1  0
 23 24  1  0
 20 25  1  0
 25 26  1  0
 18 27  1  0
 19 28  1  0
 28 29  1  0
 29 30  1  0
 30 31  1  0
 31 32  1  0
M  END
>  <Curated_InChIs>  (36) 
InChI=1S/C26H34N2O4/c1-4-5-6-10-21-23(31-2)18-24(32-3)25(26(21)30)22(29)12-11-19-8-7-9-20(17-19)28-15-13-27-14-16-28/h7-9,11-12,17-18,27,30H,4-6,10,13-16H2,1-3H3

>  <threshold>  (36) 
5

>  <pchembl>  (36) 
4.63

>  <Classification>  (36) 
0

>  <source>  (36) 
chembl_28

>  <SMILES>  (36) 
CCCCCc1c(OC)cc(OC)c(C(=O)/C=C/c2cccc(N3CCNCC3)c2)c1O

>  <InChIKey>  (36) 
IRFTZWVRVDGXKD-VAWYXSNFSA-N

$$$$

     RDKit          2D

 32 34  0  0  0  0  0  0  0  0999 V2000
   36.9662  -10.7885    0.0000 C   0  0  0  0  0  0  0  0  0  0  0  0
   36.9650  -11.6081    0.0000 C   0  0  0  0  0  0  0  0  0  0  0  0
   37.6731  -12.0170    0.0000 C   0  0  0  0  0  0  0  0  0  0  0  0
   38.3827  -11.6076    0.0000 C   0  0  0  0  0  0  0  0  0  0  0  0
   38.3799  -10.7849    0.0000 C   0  0  0  0  0  0  0  0  0  0  0  0
   37.6713  -10.3797    0.0000 C   0  0  0  0  0  0  0  0  0  0  0  0
   39.0861  -10.3737    0.0000 C   0  0  0  0  0  0  0  0  0  0  0  0
   39.7953  -10.7796    0.0000 C   0  0  0  0  0  0  0  0  0  0  0  0
   40.5015  -10.3683    0.0000 C   0  0  0  0  0  0  0  0  0  0  0  0
   41.2107  -10.7743    0.0000 C   0  0  0  0  0  0  0  0  0  0  0  0
   41.2107  -11.5903    0.0000 C   0  0  0  0  0  0  0  0  0  0  0  0
   41.9191  -11.9962    0.0000 C   0  0  0  0  0  0  0  0  0  0  0  0
   42.6263  -11.5849    0.0000 C   0  0  0  0  0  0  0  0  0  0  0  0
   42.6205  -10.7635    0.0000 C   0  0  0  0  0  0  0  0  0  0  0  0
   41.9116  -10.3613    0.0000 C   0  0  0  0  0  0  0  0  0  0  0  0
   39.0911  -12.0151    0.0000 O   0  0  0  0  0  0  0  0  0  0  0  0
   36.2570  -12.0161    0.0000 O   0  0  0  0  0  0  0  0  0  0  0  0
   36.2584  -10.3801    0.0000 C   0  0  0  0  0  0  0  0  0  0  0  0
   37.6688   -9.5625    0.0000 O   0  0  0  0  0  0  0  0  0  0  0  0
   39.0924  -12.8323    0.0000 C   0  0  0  0  0  0  0  0  0  0  0  0
   39.0830   -9.5565    0.0000 O   0  0  0  0  0  0  0  0  0  0  0  0
   36.2563  -12.8333    0.0000 C   0  0  0  0  0  0  0  0  0  0  0  0
   35.5508  -10.7889    0.0000 C   0  0  0  0  0  0  0  0  0  0  0  0
   34.8429  -10.3804    0.0000 C   0  0  0  0  0  0  0  0  0  0  0  0
   34.1353  -10.7892    0.0000 C   0  0  0  0  0  0  0  0  0  0  0  0
   34.8427   -9.5633    0.0000 C   0  0  0  0  0  0  0  0  0  0  0  0
   43.3217  -10.3499    0.0000 N   0  0  0  0  0  0  0  0  0  0  0  0
   44.0322  -10.7555    0.0000 C   0  0  0  0  0  0  0  0  0  0  0  0
   44.7348  -10.3452    0.0000 C   0  0  0  0  0  0  0  0  0  0  0  0
   44.7331   -9.5277    0.0000 O   0  0  0  0  0  0  0  0  0  0  0  0
   44.0226   -9.1221    0.0000 C   0  0  0  0  0  0  0  0  0  0  0  0
   43.3138   -9.5340    0.0000 C   0  0  0  0  0  0  0  0  0  0  0  0
  1  2  2  0
  2  3  1  0
  3  4  2  0
  4  5  1  0
  5  6  2  0
  6  1  1  0
  5  7  1  0
  7  8  1  0
  8  9  2  0
  9 10  1  0
 10 11  2  0
 11 12  1  0
 12 13  2  0
 13 14  1  0
 14 15  2  0
 15 10  1  0
  4 16  1  0
  2 17  1  0
  1 18  1  0
  6 19  1  0
 16 20  1  0
  7 21  2  0
 17 22  1  0
 18 23  1  0
 23 24  2  3
 24 25  1  0
 24 26  1  0
 27 28  1  0
 27 32  1  0
 28 29  1  0
 29 30  1  0
 30 31  1  0
 31 32  1  0
 14 27  1  0
M  END
>  <Curated_InChIs>  (37) 
InChI=1S/C26H31NO5/c1-18(2)8-10-21-23(30-3)17-24(31-4)25(26(21)29)22(28)11-9-19-6-5-7-20(16-19)27-12-14-32-15-13-27/h5-9,11,16-17,29H,10,12-15H2,1-4H3

>  <threshold>  (37) 
5

>  <pchembl>  (37) 
4.5

>  <Classification>  (37) 
0

>  <source>  (37) 
chembl_28

>  <SMILES>  (37) 
COc1cc(OC)c(C(=O)/C=C/c2cccc(N3CCOCC3)c2)c(O)c1CC=C(C)C

>  <InChIKey>  (37) 
ITTVFRZCYUKCDP-PKNBQFBNSA-N

$$$$

     RDKit          2D

 28 30  0  0  0  0  0  0  0  0999 V2000
    3.3540  -18.8738    0.0000 C   0  0  0  0  0  0  0  0  0  0  0  0
    3.3529  -19.6933    0.0000 C   0  0  0  0  0  0  0  0  0  0  0  0
    4.0609  -20.1023    0.0000 C   0  0  0  0  0  0  0  0  0  0  0  0
    4.7706  -19.6928    0.0000 C   0  0  0  0  0  0  0  0  0  0  0  0
    4.7678  -18.8702    0.0000 C   0  0  0  0  0  0  0  0  0  0  0  0
    4.0591  -18.4649    0.0000 C   0  0  0  0  0  0  0  0  0  0  0  0
    5.4739  -18.4589    0.0000 C   0  0  0  0  0  0  0  0  0  0  0  0
    6.1832  -18.8648    0.0000 C   0  0  0  0  0  0  0  0  0  0  0  0
    6.8893  -18.4536    0.0000 C   0  0  0  0  0  0  0  0  0  0  0  0
    7.5986  -18.8595    0.0000 C   0  0  0  0  0  0  0  0  0  0  0  0
    7.5986  -19.6756    0.0000 C   0  0  0  0  0  0  0  0  0  0  0  0
    8.3070  -20.0814    0.0000 C   0  0  0  0  0  0  0  0  0  0  0  0
    9.0141  -19.6701    0.0000 C   0  0  0  0  0  0  0  0  0  0  0  0
    9.0084  -18.8487    0.0000 C   0  0  0  0  0  0  0  0  0  0  0  0
    8.2994  -18.4466    0.0000 C   0  0  0  0  0  0  0  0  0  0  0  0
    5.4789  -20.1003    0.0000 O   0  0  0  0  0  0  0  0  0  0  0  0
    2.6448  -20.1014    0.0000 O   0  0  0  0  0  0  0  0  0  0  0  0
    4.0567  -17.6477    0.0000 O   0  0  0  0  0  0  0  0  0  0  0  0
    5.4802  -20.9175    0.0000 C   0  0  0  0  0  0  0  0  0  0  0  0
    5.4708  -17.6417    0.0000 O   0  0  0  0  0  0  0  0  0  0  0  0
    2.6442  -20.9185    0.0000 C   0  0  0  0  0  0  0  0  0  0  0  0
    9.7135  -18.4373    0.0000 N   0  0  0  0  0  0  0  0  0  0  0  0
   10.4240  -18.8429    0.0000 C   0  0  0  0  0  0  0  0  0  0  0  0
   11.1266  -18.4327    0.0000 C   0  0  0  0  0  0  0  0  0  0  0  0
   11.1249  -17.6151    0.0000 N   0  0  0  0  0  0  0  0  0  0  0  0
   10.4143  -17.2095    0.0000 C   0  0  0  0  0  0  0  0  0  0  0  0
    9.7056  -17.6215    0.0000 C   0  0  0  0  0  0  0  0  0  0  0  0
   11.8311  -17.2041    0.0000 C   0  0  0  0  0  0  0  0  0  0  0  0
  1  2  2  0
  2  3  1  0
  3  4  2  0
  4  5  1  0
  5  6  2  0
  6  1  1  0
  5  7  1  0
  7  8  1  0
  8  9  2  0
  9 10  1  0
 10 11  2  0
 11 12  1  0
 12 13  2  0
 13 14  1  0
 14 15  2  0
 15 10  1  0
  4 16  1  0
  2 17  1  0
  6 18  1  0
 16 19  1  0
  7 20  2  0
 17 21  1  0
 22 23  1  0
 22 27  1  0
 23 24  1  0
 24 25  1  0
 25 26  1  0
 26 27  1  0
 14 22  1  0
 25 28  1  0
M  END
>  <Curated_InChIs>  (38) 
InChI=1S/C22H26N2O4/c1-23-9-11-24(12-10-23)17-6-4-5-16(13-17)7-8-19(25)22-20(26)14-18(27-2)15-21(22)28-3/h4-8,13-15,26H,9-12H2,1-3H3

>  <threshold>  (38) 
5

>  <pchembl>  (38) 
4.75

>  <Classification>  (38) 
0

>  <source>  (38) 
chembl_28

>  <SMILES>  (38) 
COc1cc(O)c(C(=O)/C=C/c2cccc(N3CCN(C)CC3)c2)c(OC)c1

>  <InChIKey>  (38) 
IVXXOWNANLKDHA-BQYQJAHWSA-N

$$$$

     RDKit          2D

 27 29  0  0  0  0  0  0  0  0999 V2000
   35.9798  -25.9107    0.0000 C   0  0  0  0  0  0  0  0  0  0  0  0
   35.9786  -26.7302    0.0000 C   0  0  0  0  0  0  0  0  0  0  0  0
   36.6867  -27.1392    0.0000 C   0  0  0  0  0  0  0  0  0  0  0  0
   37.3963  -26.7298    0.0000 C   0  0  0  0  0  0  0  0  0  0  0  0
   37.3935  -25.9071    0.0000 C   0  0  0  0  0  0  0  0  0  0  0  0
   36.6849  -25.5018    0.0000 C   0  0  0  0  0  0  0  0  0  0  0  0
   38.0997  -25.4958    0.0000 C   0  0  0  0  0  0  0  0  0  0  0  0
   38.8089  -25.9018    0.0000 C   0  0  0  0  0  0  0  0  0  0  0  0
   39.5151  -25.4905    0.0000 C   0  0  0  0  0  0  0  0  0  0  0  0
   40.2243  -25.8964    0.0000 C   0  0  0  0  0  0  0  0  0  0  0  0
   40.2243  -26.7125    0.0000 C   0  0  0  0  0  0  0  0  0  0  0  0
   40.9327  -27.1183    0.0000 C   0  0  0  0  0  0  0  0  0  0  0  0
   41.6398  -26.7070    0.0000 C   0  0  0  0  0  0  0  0  0  0  0  0
   41.6341  -25.8856    0.0000 C   0  0  0  0  0  0  0  0  0  0  0  0
   40.9251  -25.4835    0.0000 C   0  0  0  0  0  0  0  0  0  0  0  0
   38.1047  -27.1373    0.0000 O   0  0  0  0  0  0  0  0  0  0  0  0
   35.2706  -27.1383    0.0000 O   0  0  0  0  0  0  0  0  0  0  0  0
   36.6824  -24.6847    0.0000 O   0  0  0  0  0  0  0  0  0  0  0  0
   38.1060  -27.9544    0.0000 C   0  0  0  0  0  0  0  0  0  0  0  0
   38.0966  -24.6787    0.0000 O   0  0  0  0  0  0  0  0  0  0  0  0
   35.2699  -27.9555    0.0000 C   0  0  0  0  0  0  0  0  0  0  0  0
   42.3353  -25.4720    0.0000 N   0  0  0  0  0  0  0  0  0  0  0  0
   43.0458  -25.8776    0.0000 C   0  0  0  0  0  0  0  0  0  0  0  0
   43.7484  -25.4674    0.0000 C   0  0  0  0  0  0  0  0  0  0  0  0
   43.7467  -24.6498    0.0000 O   0  0  0  0  0  0  0  0  0  0  0  0
   43.0362  -24.2442    0.0000 C   0  0  0  0  0  0  0  0  0  0  0  0
   42.3274  -24.6562    0.0000 C   0  0  0  0  0  0  0  0  0  0  0  0
  1  2  2  0
  2  3  1  0
  3  4  2  0
  4  5  1  0
  5  6  2  0
  6  1  1  0
  5  7  1  0
  7  8  1  0
  8  9  2  0
  9 10  1  0
 10 11  2  0
 11 12  1  0
 12 13  2  0
 13 14  1  0
 14 15  2  0
 15 10  1  0
  4 16  1  0
  2 17  1  0
  6 18  1  0
 16 19  1  0
  7 20  2  0
 17 21  1  0
 22 23  1  0
 22 27  1  0
 23 24  1  0
 24 25  1  0
 25 26  1  0
 26 27  1  0
 14 22  1  0
M  END
>  <Curated_InChIs>  (39) 
InChI=1S/C21H23NO5/c1-25-17-13-19(24)21(20(14-17)26-2)18(23)7-6-15-4-3-5-16(12-15)22-8-10-27-11-9-22/h3-7,12-14,24H,8-11H2,1-2H3

>  <threshold>  (39) 
5

>  <pchembl>  (39) 
4.73

>  <Classification>  (39) 
0

>  <source>  (39) 
chembl_28

>  <SMILES>  (39) 
COc1cc(O)c(C(=O)/C=C/c2cccc(N3CCOCC3)c2)c(OC)c1

>  <InChIKey>  (39) 
IWIOWTWLOWFTPW-VOTSOKGWSA-N

$$$$

     RDKit          2D

 36 39  0  0  0  0  0  0  0  0999 V2000
    2.4208  -20.9750    0.0000 C   0  0  0  0  0  0  0  0  0  0  0  0
    1.7049  -20.5625    0.0000 C   0  0  0  0  0  0  0  0  0  0  0  0
    1.7049  -19.7375    0.0000 N   0  0  0  0  0  0  0  0  0  0  0  0
    2.4208  -19.3250    0.0000 C   0  0  0  0  0  0  0  0  0  0  0  0
    3.1325  -19.7375    0.0000 C   0  0  0  0  0  0  0  0  0  0  0  0
    3.8483  -19.3250    0.0000 O   0  0  0  0  0  0  0  0  0  0  0  0
   -1.8703  -18.5000    0.0000 C   0  0  0  0  0  0  0  0  0  0  0  0
   -1.8703  -19.3250    0.0000 N   0  0  0  0  0  0  0  0  0  0  0  0
   -1.1544  -19.7375    0.0000 C   0  0  0  0  0  0  0  0  0  0  0  0
   -0.4385  -19.3250    0.0000 C   0  0  0  0  0  0  0  0  0  0  0  0
   -0.4385  -18.5000    0.0000 C   0  0  0  0  0  0  0  0  0  0  0  0
   -1.1544  -18.0875    0.0000 N   0  0  0  0  0  0  0  0  0  0  0  0
    0.9890  -19.3250    0.0000 C   0  0  0  0  0  0  0  0  0  0  0  0
    0.9890  -18.5000    0.0000 N   0  0  0  0  0  0  0  0  0  0  0  0
    0.2773  -18.0875    0.0000 C   0  0  0  0  0  0  0  0  0  0  0  0
    0.2773  -19.7375    0.0000 N   0  0  0  0  0  0  0  0  0  0  0  0
    0.2773  -17.2625    0.0000 N   0  0  0  0  0  0  0  0  0  0  0  0
   -0.4385  -16.8500    0.0000 C   0  0  0  0  0  0  0  0  0  0  0  0
   -0.4385  -16.0250    0.0000 C   0  0  0  0  0  0  0  0  0  0  0  0
    0.2773  -15.6125    0.0000 C   0  0  0  0  0  0  0  0  0  0  0  0
    0.9890  -16.0250    0.0000 C   0  0  0  0  0  0  0  0  0  0  0  0
    0.9890  -16.8500    0.0000 C   0  0  0  0  0  0  0  0  0  0  0  0
   -1.1544  -20.5625    0.0000 N   0  0  0  0  0  0  0  0  0  0  0  0
   -0.4385  -20.9750    0.0000 C   0  0  0  0  0  0  0  0  0  0  0  0
   -0.4385  -21.8000    0.0000 C   0  0  0  0  0  0  0  0  0  0  0  0
   -1.1544  -22.2125    0.0000 C   0  0  0  0  0  0  0  0  0  0  0  0
   -1.8703  -21.8000    0.0000 C   0  0  0  0  0  0  0  0  0  0  0  0
   -1.8703  -20.9750    0.0000 C   0  0  0  0  0  0  0  0  0  0  0  0
   -2.5820  -18.0875    0.0000 N   0  0  0  0  0  0  0  0  0  0  0  0
   -3.2978  -18.5000    0.0000 C   0  0  0  0  0  0  0  0  0  0  0  0
   -4.0095  -18.0875    0.0000 C   0  0  0  0  0  0  0  0  0  0  0  0
   -4.7254  -18.5000    0.0000 O   0  0  0  0  0  0  0  0  0  0  0  0
   -2.5820  -17.2625    0.0000 C   0  0  0  0  0  0  0  0  0  0  0  0
   -3.2978  -16.8500    0.0000 C   0  0  0  0  0  0  0  0  0  0  0  0
   -4.0095  -17.2625    0.0000 O   0  0  0  0  0  0  0  0  0  0  0  0
    3.1325  -20.5625    0.0000 O   0  0  0  0  0  0  0  0  0  0  0  0
  1  2  1  0
  4  5  1  0
  5  6  1  0
  3  4  1  0
  7  8  2  0
  8  9  1  0
  9 10  2  0
 10 11  1  0
 11 12  2  0
  7 12  1  0
 13 14  1  0
 14 15  2  0
 13 16  2  0
 10 16  1  0
 11 15  1  0
 17 18  1  0
 18 19  1  0
 19 20  1  0
 20 21  1  0
 21 22  1  0
 17 22  1  0
 15 17  1  0
 23 24  1  0
 24 25  1  0
 25 26  1  0
 26 27  1  0
 27 28  1  0
 23 28  1  0
  9 23  1  0
 30 31  1  0
 31 32  1  0
 29 30  1  0
 33 34  1  0
 34 35  1  0
 29 33  1  0
  7 29  1  0
  3 13  1  0
  2  3  1  0
  1 36  1  0
M  END
>  <Curated_InChIs>  (40) 
InChI=1S/C24H40N8O4/c33-15-11-31(12-16-34)23-26-20-19(21(27-23)29-7-3-1-4-8-29)25-24(32(13-17-35)14-18-36)28-22(20)30-9-5-2-6-10-30/h33-36H,1-18H2

>  <threshold>  (40) 
5

>  <pchembl>  (40) 
4.64, 4.46, 4.62

>  <Classification>  (40) 
0

>  <source>  (40) 
chembl_28

>  <SMILES>  (40) 
OCCN(CCO)c1nc(N2CCCCC2)c2nc(N(CCO)CCO)nc(N3CCCCC3)c2n1

>  <InChIKey>  (40) 
IZEKFCXSFNUWAM-UHFFFAOYSA-N

$$$$

     RDKit          2D

 46 54  0  0  0  0  0  0  0  0999 V2000
    0.6400   -2.2093    0.0000 C   0  0  0  0  0  0  0  0  0  0  0  0
    1.9804   -1.3629    0.0000 C   0  0  0  0  0  0  0  0  0  0  0  0
    2.0704   -1.8299    0.0000 N   0  0  0  0  0  0  0  0  0  0  0  0
    1.6265   -0.6720    0.0000 N   0  0  0  0  0  0  0  0  0  0  0  0
    1.1375   -2.1570    0.0000 C   0  0  0  0  0  0  0  0  0  0  0  0
    0.7870   -1.0565    0.0000 C   0  0  0  0  0  0  0  0  0  0  0  0
    2.4500   -1.3155    0.0000 C   0  0  0  0  0  0  0  0  0  0  0  0
    2.6475   -1.9076    0.0000 C   0  0  0  0  0  0  0  0  0  0  0  0
    2.2604   -2.4352    0.0000 C   0  0  0  0  0  0  0  0  0  0  0  0
    0.3880   -1.5985    0.0000 C   0  0  0  0  0  0  0  0  0  0  0  0
    1.8199    0.3956    0.0000 C   0  0  0  0  0  0  0  0  0  0  0  0
    2.8539   -1.3862    0.0000 C   0  0  0  0  0  0  0  0  0  0  0  0
    0.9767   -1.5677    0.0000 C   0  0  0  0  0  0  0  0  0  0  0  0
    1.3409   -2.8501    0.0000 C   0  0  0  0  0  0  0  0  0  0  0  0
    2.5485    0.9895    0.0000 O   0  0  0  0  0  0  0  0  0  0  0  0
    1.6710   -1.1002    0.0000 O   0  0  0  0  0  0  0  0  0  0  0  0
    1.1934    1.1851    0.0000 O   0  0  0  0  0  0  0  0  0  0  0  0
    3.7441   -1.4629    0.0000 O   0  0  0  0  0  0  0  0  0  0  0  0
    0.8259   -0.7566    0.0000 C   0  0  0  0  0  0  0  0  0  0  0  0
    1.2107   -3.6648    0.0000 C   0  0  0  0  0  0  0  0  0  0  0  0
   -0.3974   -2.3065    0.0000 C   0  0  0  0  0  0  0  0  0  0  0  0
    2.9377   -0.8148    0.0000 C   0  0  0  0  0  0  0  0  0  0  0  0
    2.4884    1.8593    0.0000 C   0  0  0  0  0  0  0  0  0  0  0  0
    1.1311   -1.8259    0.0000 C   0  0  0  0  0  0  0  0  0  0  0  0
   -1.2407   -1.9101    0.0000 O   0  0  0  0  0  0  0  0  0  0  0  0
    3.6896   -0.3201    0.0000 O   0  0  0  0  0  0  0  0  0  0  0  0
    0.4401   -3.9594    0.0000 C   0  0  0  0  0  0  0  0  0  0  0  0
    1.8512   -4.1848    0.0000 C   0  0  0  0  0  0  0  0  0  0  0  0
    1.4529   -0.2204    0.0000 C   0  0  0  0  0  0  0  0  0  0  0  0
    0.0480   -0.4817    0.0000 C   0  0  0  0  0  0  0  0  0  0  0  0
    3.1423    2.3623    0.0000 C   0  0  0  0  0  0  0  0  0  0  0  0
    1.7258    2.1740    0.0000 C   0  0  0  0  0  0  0  0  0  0  0  0
    0.3165   -1.9563    0.0000 C   0  0  0  0  0  0  0  0  0  0  0  0
    1.6513   -2.4662    0.0000 C   0  0  0  0  0  0  0  0  0  0  0  0
    1.7211   -4.9995    0.0000 C   0  0  0  0  0  0  0  0  0  0  0  0
    1.3021    0.5907    0.0000 C   0  0  0  0  0  0  0  0  0  0  0  0
   -0.1028    0.3294    0.0000 C   0  0  0  0  0  0  0  0  0  0  0  0
    0.3100   -4.7741    0.0000 C   0  0  0  0  0  0  0  0  0  0  0  0
    1.6171    2.9918    0.0000 C   0  0  0  0  0  0  0  0  0  0  0  0
    0.0221   -2.7269    0.0000 C   0  0  0  0  0  0  0  0  0  0  0  0
    1.3569   -3.2368    0.0000 C   0  0  0  0  0  0  0  0  0  0  0  0
    3.0336    3.1801    0.0000 C   0  0  0  0  0  0  0  0  0  0  0  0
    0.5242    0.8656    0.0000 C   0  0  0  0  0  0  0  0  0  0  0  0
    0.5423   -3.3672    0.0000 C   0  0  0  0  0  0  0  0  0  0  0  0
    0.9505   -5.2941    0.0000 C   0  0  0  0  0  0  0  0  0  0  0  0
    2.2710    3.4949    0.0000 C   0  0  0  0  0  0  0  0  0  0  0  0
  2  8  1  0
  3  5  1  0
  4  6  1  0
  5  1  1  0
  6  1  1  0
  7  9  1  0
  8  9  1  0
  9 14  1  0
 10  6  1  0
  4 11  1  0
  3 12  1  0
 13 10  1  0
 14  1  1  0
 15 11  1  0
 16 12  1  0
 17 11  2  0
 18 12  2  0
 13 19  1  1
 14 20  1  1
  1 21  1  6
  2 22  1  6
 23 15  1  0
 24 16  1  0
 25 21  1  0
 26 22  1  0
 27 20  2  0
 28 20  1  0
 29 19  2  0
 30 19  1  0
 31 23  2  0
 32 23  1  0
 33 24  2  0
 34 24  1  0
 35 28  2  0
 36 29  1  0
 37 30  2  0
 38 27  1  0
 39 32  2  0
 40 33  1  0
 41 34  2  0
 42 31  1  0
 43 37  1  0
 44 41  1  0
 45 35  1  0
 46 39  1  0
  5 10  1  0
  3  8  1  0
  2  7  1  0
  7  4  1  0
  2 13  1  0
 45 38  2  0
 43 36  2  0
 46 42  2  0
 44 40  2  0
M  END
>  <Curated_InChIs>  (41) 
InChI=1S/C38H34N2O6/c41-21-37-29(23-13-5-1-6-14-23)27-31-38(22-42)30(24-15-7-2-8-16-24)28(33(37)39(31)35(43)45-25-17-9-3-10-18-25)34(37)40(32(27)38)36(44)46-26-19-11-4-12-20-26/h1-20,27-34,41-42H,21-22H2

>  <threshold>  (41) 
5

>  <pchembl>  (41) 
4.68

>  <Classification>  (41) 
0

>  <source>  (41) 
chembl_28

>  <SMILES>  (41) 
O=C(Oc1ccccc1)N1C2C3C4N(C(=O)Oc5ccccc5)C5C(C1[C@]5(CO)[C@H]3c1ccccc1)[C@@H](c1ccccc1)[C@@]24CO

>  <InChIKey>  (41) 
JOGUXZBUKZOXCC-LJZXZELSSA-N

$$$$

     RDKit          2D

 26 27  0  0  0  0  0  0  0  0999 V2000
    1.2990   -0.7500    0.0000 C   0  0  0  0  0  0  0  0  0  0  0  0
    2.5973   -1.5031    0.0000 C   0  0  0  0  0  0  0  0  0  0  0  0
    2.5951   -3.0039    0.0000 N   0  0  0  0  0  0  0  0  0  0  0  0
    3.8933   -3.7570    0.0000 N   0  0  0  0  0  0  0  0  0  0  0  0
    3.8912   -5.2578    0.0000 C   0  0  0  0  0  0  0  0  0  0  0  0
    5.1894   -6.0109    0.0000 C   0  0  0  0  0  0  0  0  0  0  0  0
    2.8509   -5.8560    0.0000 O   0  0  0  0  0  0  0  0  0  0  0  0
    3.6375   -0.9049    0.0000 O   0  0  0  0  0  0  0  0  0  0  0  0
    1.2956   -3.7547    0.0000 C   0  0  0  0  0  0  0  0  0  0  0  0
    1.2952   -4.9547    0.0000 C   0  0  0  0  0  0  0  0  0  0  0  0
    0.2563   -4.3546    0.0000 C   0  0  0  0  0  0  0  0  0  0  0  0
    0.2564   -3.1547    0.0000 C   0  0  0  0  0  0  0  0  0  0  0  0
    1.2990    0.7500    0.0000 C   0  0  0  0  0  0  0  0  0  0  0  0
    0.0000    1.5000    0.0000 C   0  0  0  0  0  0  0  0  0  0  0  0
   -1.2990    0.7500    0.0000 C   0  0  0  0  0  0  0  0  0  0  0  0
   -1.2990   -0.7500    0.0000 C   0  0  0  0  0  0  0  0  0  0  0  0
    0.0000   -1.5000    0.0000 C   0  0  0  0  0  0  0  0  0  0  0  0
    5.1895   -7.5109    0.0000 C   0  0  0  0  0  0  0  0  0  0  0  0
    6.4885   -8.2610    0.0000 C   0  0  0  0  0  0  0  0  0  0  0  0
    7.7875   -7.5110    0.0000 C   0  0  0  0  0  0  0  0  0  0  0  0
    7.7876   -6.0110    0.0000 C   0  0  0  0  0  0  0  0  0  0  0  0
    6.4885   -5.2610    0.0000 C   0  0  0  0  0  0  0  0  0  0  0  0
    2.3383    1.3500    0.0000 Cl  0  0  0  0  0  0  0  0  0  0  0  0
    9.0858   -5.2579    0.0000 N   0  0  0  0  0  0  0  0  0  0  0  0
    9.0841   -4.0579    0.0000 O   0  0  0  0  0  0  0  0  0  0  0  0
   10.1261   -5.8561    0.0000 O   0  0  0  0  0  0  0  0  0  0  0  0
  1  2  1  0
  2  3  1  0
  3  4  1  0
  4  5  1  0
  5  6  1  0
  5  7  2  0
  2  8  2  0
  3  9  1  0
  9 10  1  0
  9 11  1  0
  9 12  1  0
  1 13  2  0
 13 14  1  0
 14 15  2  0
 15 16  1  0
 16 17  2  0
 17  1  1  0
  6 18  2  0
 18 19  1  0
 19 20  2  0
 20 21  1  0
 21 22  2  0
 22  6  1  0
 13 23  1  0
 24 25  2  0
 24 26  1  0
 21 24  1  0
M  CHG  2  24   1  26  -1
M  END
>  <Curated_InChIs>  (42) 
InChI=1S/C18H18ClN3O4/c1-18(2,3)21(17(24)14-9-4-5-10-15(14)19)20-16(23)12-7-6-8-13(11-12)22(25)26/h4-11H,1-3H3,(H,20,23)

>  <threshold>  (42) 
5

>  <pchembl>  (42) 
4.19

>  <Classification>  (42) 
0

>  <source>  (42) 
chembl_28

>  <SMILES>  (42) 
CC(C)(C)N(NC(=O)c1cccc([N+](=O)[O-])c1)C(=O)c1ccccc1Cl

>  <InChIKey>  (42) 
JTDKEHXEUNBTEP-UHFFFAOYSA-N

$$$$

     RDKit          2D

 34 36  0  0  0  0  0  0  0  0999 V2000
   19.0829  -18.9604    0.0000 C   0  0  0  0  0  0  0  0  0  0  0  0
   19.0817  -19.7800    0.0000 C   0  0  0  0  0  0  0  0  0  0  0  0
   19.7898  -20.1890    0.0000 C   0  0  0  0  0  0  0  0  0  0  0  0
   20.4994  -19.7795    0.0000 C   0  0  0  0  0  0  0  0  0  0  0  0
   20.4966  -18.9569    0.0000 C   0  0  0  0  0  0  0  0  0  0  0  0
   19.7880  -18.5516    0.0000 C   0  0  0  0  0  0  0  0  0  0  0  0
   21.2028  -18.5456    0.0000 C   0  0  0  0  0  0  0  0  0  0  0  0
   21.9120  -18.9515    0.0000 C   0  0  0  0  0  0  0  0  0  0  0  0
   22.6182  -18.5403    0.0000 C   0  0  0  0  0  0  0  0  0  0  0  0
   23.3274  -18.9462    0.0000 C   0  0  0  0  0  0  0  0  0  0  0  0
   23.3274  -19.7622    0.0000 C   0  0  0  0  0  0  0  0  0  0  0  0
   24.0358  -20.1681    0.0000 C   0  0  0  0  0  0  0  0  0  0  0  0
   24.7430  -19.7568    0.0000 C   0  0  0  0  0  0  0  0  0  0  0  0
   24.7372  -18.9354    0.0000 C   0  0  0  0  0  0  0  0  0  0  0  0
   24.0283  -18.5332    0.0000 C   0  0  0  0  0  0  0  0  0  0  0  0
   21.2078  -20.1870    0.0000 O   0  0  0  0  0  0  0  0  0  0  0  0
   18.3737  -20.1880    0.0000 O   0  0  0  0  0  0  0  0  0  0  0  0
   19.7856  -17.7344    0.0000 O   0  0  0  0  0  0  0  0  0  0  0  0
   21.2091  -21.0042    0.0000 C   0  0  0  0  0  0  0  0  0  0  0  0
   21.1997  -17.7284    0.0000 O   0  0  0  0  0  0  0  0  0  0  0  0
   18.3731  -21.0052    0.0000 C   0  0  0  0  0  0  0  0  0  0  0  0
   25.4423  -18.5240    0.0000 N   0  0  0  0  0  0  0  0  0  0  0  0
   26.1529  -18.9296    0.0000 C   0  0  0  0  0  0  0  0  0  0  0  0
   26.8555  -18.5193    0.0000 C   0  0  0  0  0  0  0  0  0  0  0  0
   26.8537  -17.7018    0.0000 N   0  0  0  0  0  0  0  0  0  0  0  0
   26.1432  -17.2962    0.0000 C   0  0  0  0  0  0  0  0  0  0  0  0
   25.4344  -17.7082    0.0000 C   0  0  0  0  0  0  0  0  0  0  0  0
   27.5600  -17.2907    0.0000 C   0  0  0  0  0  0  0  0  0  0  0  0
   28.2691  -17.6968    0.0000 O   0  0  0  0  0  0  0  0  0  0  0  0
   27.5571  -16.4735    0.0000 O   0  0  0  0  0  0  0  0  0  0  0  0
   28.9754  -17.2858    0.0000 C   0  0  0  0  0  0  0  0  0  0  0  0
   29.6845  -17.6919    0.0000 C   0  0  0  0  0  0  0  0  0  0  0  0
   28.9725  -16.4686    0.0000 C   0  0  0  0  0  0  0  0  0  0  0  0
   29.6789  -16.8721    0.0000 C   0  0  0  0  0  0  0  0  0  0  0  0
  1  2  2  0
  2  3  1  0
  3  4  2  0
  4  5  1  0
  5  6  2  0
  6  1  1  0
  5  7  1  0
  7  8  1  0
  8  9  2  0
  9 10  1  0
 10 11  2  0
 11 12  1  0
 12 13  2  0
 13 14  1  0
 14 15  2  0
 15 10  1  0
  4 16  1  0
  2 17  1  0
  6 18  1  0
 16 19  1  0
  7 20  2  0
 17 21  1  0
 22 23  1  0
 22 27  1  0
 23 24  1  0
 24 25  1  0
 25 26  1  0
 26 27  1  0
 14 22  1  0
 25 28  1  0
 28 29  1  0
 28 30  2  0
 29 31  1  0
 31 32  1  0
 31 33  1  0
 31 34  1  0
M  END
>  <Curated_InChIs>  (43) 
InChI=1S/C26H32N2O6/c1-26(2,3)34-25(31)28-13-11-27(12-14-28)19-8-6-7-18(15-19)9-10-21(29)24-22(30)16-20(32-4)17-23(24)33-5/h6-10,15-17,30H,11-14H2,1-5H3

>  <threshold>  (43) 
5

>  <pchembl>  (43) 
4.4

>  <Classification>  (43) 
0

>  <source>  (43) 
chembl_28

>  <SMILES>  (43) 
COc1cc(O)c(C(=O)/C=C/c2cccc(N3CCN(C(=O)OC(C)(C)C)CC3)c2)c(OC)c1

>  <InChIKey>  (43) 
JWNYYLTWLQRQSN-MDZDMXLPSA-N

$$$$

     RDKit          2D

 33 37  0  0  0  0  0  0  0  0999 V2000
   23.0582   -3.6916    0.0000 C   0  0  0  0  0  0  0  0  0  0  0  0
   23.0582   -4.5174    0.0000 C   0  0  0  0  0  0  0  0  0  0  0  0
   23.7668   -4.9282    0.0000 C   0  0  0  0  0  0  0  0  0  0  0  0
   24.4799   -4.5174    0.0000 C   0  0  0  0  0  0  0  0  0  0  0  0
   24.4799   -3.6916    0.0000 C   0  0  0  0  0  0  0  0  0  0  0  0
   23.7668   -3.2810    0.0000 C   0  0  0  0  0  0  0  0  0  0  0  0
   25.2673   -3.4392    0.0000 C   0  0  0  0  0  0  0  0  0  0  0  0
   25.7503   -4.1024    0.0000 C   0  0  0  0  0  0  0  0  0  0  0  0
   25.2673   -4.7699    0.0000 N   0  0  0  0  0  0  0  0  0  0  0  0
   26.5712   -4.0153    0.0000 C   0  0  0  0  0  0  0  0  0  0  0  0
   27.0543   -4.6874    0.0000 C   0  0  0  0  0  0  0  0  0  0  0  0
   27.8753   -4.6003    0.0000 C   0  0  0  0  0  0  0  0  0  0  0  0
   28.2088   -3.8458    0.0000 C   0  0  0  0  0  0  0  0  0  0  0  0
   27.7214   -3.1782    0.0000 C   0  0  0  0  0  0  0  0  0  0  0  0
   26.9048   -3.2650    0.0000 N   0  0  0  0  0  0  0  0  0  0  0  0
   26.4218   -2.5976    0.0000 C   0  0  0  0  0  0  0  0  0  0  0  0
   25.6008   -2.6845    0.0000 C   0  0  0  0  0  0  0  0  0  0  0  0
   27.0048   -2.0191    0.0000 C   0  0  0  0  0  0  0  0  0  0  0  0
   27.7177   -1.6039    0.0000 C   0  0  0  0  0  0  0  0  0  0  0  0
   28.2999   -2.1826    0.0000 O   0  0  0  0  0  0  0  0  0  0  0  0
   29.1253   -2.1826    0.0000 C   0  0  0  0  0  0  0  0  0  0  0  0
   27.7177   -0.7787    0.0000 O   0  0  0  0  0  0  0  0  0  0  0  0
   26.1089   -3.0868    0.0000 C   0  0  0  0  0  0  0  0  0  0  0  0
   29.0334   -3.8458    0.0000 C   0  0  0  0  0  0  0  0  0  0  0  0
   29.6161   -4.4279    0.0000 C   0  0  0  0  0  0  0  0  0  0  0  0
   26.1562   -4.7328    0.0000 N   0  0  0  0  0  0  0  0  0  0  0  0
   26.5712   -5.4459    0.0000 N   0  0  0  0  0  0  0  0  0  0  0  0
   26.5712   -6.2716    0.0000 C   0  0  0  0  0  0  0  0  0  0  0  0
   25.8586   -6.6822    0.0000 N   0  0  0  0  0  0  0  0  0  0  0  0
   25.8586   -7.5031    0.0000 C   0  0  0  0  0  0  0  0  0  0  0  0
   26.5712   -7.9181    0.0000 C   0  0  0  0  0  0  0  0  0  0  0  0
   27.2840   -7.5031    0.0000 N   0  0  0  0  0  0  0  0  0  0  0  0
   27.2840   -6.6822    0.0000 C   0  0  0  0  0  0  0  0  0  0  0  0
  1  2  2  0
  2  3  1  0
  3  4  2  0
  4  5  1  0
  5  6  2  0
  6  1  1  0
  7  5  1  0
  8  7  2  0
  9  8  1  0
  4  9  1  0
  8 10  1  0
 10 11  1  0
 12 11  1  1
 12 13  1  0
 13 14  1  0
 14 15  1  0
 15 16  1  0
 16 17  1  1
 17  7  1  0
 16 18  1  0
 12 18  1  0
 18 19  1  1
 19 20  1  0
 20 21  1  0
 19 22  2  0
 15 23  1  0
 13 24  1  6
 24 25  1  0
 10 26  2  0
 26 27  1  0
 27 28  1  0
 28 29  2  0
 29 30  1  0
 30 31  2  0
 31 32  1  0
 32 33  2  0
 33 28  1  0
M  END
>  <Curated_InChIs>  (44) 
InChI=1S/C25H30N6O2/c1-4-15-14-31(2)21-12-18-16-7-5-6-8-19(16)28-24(18)20(11-17(15)23(21)25(32)33-3)29-30-22-13-26-9-10-27-22/h5-10,13,15,17,21,23,28H,4,11-12,14H2,1-3H3,(H,27,30)

>  <threshold>  (44) 
5

>  <pchembl>  (44) 
4.07

>  <Classification>  (44) 
0

>  <source>  (44) 
chembl_28

>  <SMILES>  (44) 
CC[C@H]1CN(C)[C@H]2Cc3c([nH]c4ccccc34)/C(=N/Nc3cnccn3)C[C@H]1[C@@H]2C(=O)OC

>  <InChIKey>  (44) 
JXBNWGDXRZHTSN-ULTIXEORSA-N

$$$$

     RDKit          2D

 34 40  0  0  0  0  0  0  0  0999 V2000
    5.5455  -23.5563    0.0000 C   0  0  0  0  0  0  0  0  0  0  0  0
    4.8364  -23.9730    0.0000 C   0  0  0  0  0  0  0  0  0  0  0  0
    4.2261  -24.5282    0.0000 C   0  0  0  0  0  0  0  0  0  0  0  0
    4.2311  -25.3566    0.0000 C   0  0  0  0  0  0  0  0  0  0  0  0
    3.5220  -25.7733    0.0000 C   0  0  0  0  0  0  0  0  0  0  0  0
    3.5249  -26.5981    0.0000 O   0  0  0  0  0  0  0  0  0  0  0  0
    2.8008  -25.3658    0.0000 C   0  0  0  0  0  0  0  0  0  0  0  0
    2.7957  -24.5374    0.0000 C   0  0  0  0  0  0  0  0  0  0  0  0
    3.5048  -24.1208    0.0000 C   0  0  0  0  0  0  0  0  0  0  0  0
    2.7264  -24.3817    0.0000 C   0  0  0  0  0  0  0  0  0  0  0  0
    2.1049  -23.8353    0.0000 O   0  0  0  0  0  0  0  0  0  0  0  0
    2.2712  -23.0272    0.0000 C   0  0  0  0  0  0  0  0  0  0  0  0
    1.6534  -22.4787    0.0000 O   0  0  0  0  0  0  0  0  0  0  0  0
    3.0532  -22.7641    0.0000 C   0  0  0  0  0  0  0  0  0  0  0  0
    3.6711  -23.3127    0.0000 C   0  0  0  0  0  0  0  0  0  0  0  0
    4.4926  -23.2194    0.0000 O   0  0  0  0  0  0  0  0  0  0  0  0
    2.0766  -24.1337    0.0000 C   0  0  0  0  0  0  0  0  0  0  0  0
    1.3675  -24.5503    0.0000 C   0  0  0  0  0  0  0  0  0  0  0  0
    1.3704  -25.3751    0.0000 C   0  0  0  0  0  0  0  0  0  0  0  0
    2.0917  -25.7826    0.0000 C   0  0  0  0  0  0  0  0  0  0  0  0
    2.0967  -26.6110    0.0000 C   0  0  0  0  0  0  0  0  0  0  0  0
    2.8093  -26.1921    0.0000 O   0  0  0  0  0  0  0  0  0  0  0  0
    1.3876  -27.0277    0.0000 C   0  0  0  0  0  0  0  0  0  0  0  0
    1.3905  -27.8525    0.0000 O   0  0  0  0  0  0  0  0  0  0  0  0
    0.6664  -26.6203    0.0000 O   0  0  0  0  0  0  0  0  0  0  0  0
    0.6613  -25.7918    0.0000 C   0  0  0  0  0  0  0  0  0  0  0  0
   -0.0578  -25.3880    0.0000 C   0  0  0  0  0  0  0  0  0  0  0  0
   -0.8079  -25.7297    0.0000 C   0  0  0  0  0  0  0  0  0  0  0  0
   -1.3631  -25.1193    0.0000 O   0  0  0  0  0  0  0  0  0  0  0  0
   -0.9592  -24.4002    0.0000 C   0  0  0  0  0  0  0  0  0  0  0  0
   -0.1512  -24.5664    0.0000 C   0  0  0  0  0  0  0  0  0  0  0  0
    5.3255  -24.6364    0.0000 C   0  0  0  0  0  0  0  0  0  0  0  0
    3.3863  -24.7739    0.0000 C   0  0  0  0  0  0  0  0  0  0  0  0
    1.3638  -26.2047    0.0000 C   0  0  0  0  0  0  0  0  0  0  0  0
  5  7  1  0
  7  8  1  0
  8  9  1  0
  3  9  1  0
  9 10  1  6
 10 11  1  0
 11 12  1  0
 12 13  2  0
 12 14  1  0
 15 14  1  6
  9 15  1  0
 15 16  1  0
  2 16  1  0
  8 17  1  6
 17 18  1  0
 18 19  1  0
 19 20  1  0
  7 20  1  0
 20 21  1  0
 21 22  1  6
 20 22  1  6
 21 23  1  0
 23 24  2  0
 23 25  1  0
 25 26  1  0
 19 26  1  0
 26 27  1  1
 27 28  2  0
 28 29  1  0
 29 30  1  0
 30 31  2  0
 27 31  1  0
  2 32  1  0
  7 33  1  6
  1  2  1  0
 19 34  1  1
  2  3  1  0
  3  4  1  6
  4  5  1  0
  5  6  2  0
M  END
>  <Curated_InChIs>  (45) 
InChI=1S/C26H30O8/c1-22(2)15-9-16(27)24(4)14(25(15)12-31-18(28)10-17(25)33-22)5-7-23(3)19(13-6-8-30-11-13)32-21(29)20-26(23,24)34-20/h6,8,11,14-15,17,19-20H,5,7,9-10,12H2,1-4H3

>  <threshold>  (45) 
5

>  <pchembl>  (45) 
4.72

>  <Classification>  (45) 
0

>  <source>  (45) 
chembl_28

>  <SMILES>  (45) 
CC1(C)O[C@H]2CC(=O)OC[C@@]23[C@H]1CC(=O)[C@]1(C)[C@@H]3CC[C@@]2(C)[C@H](c3ccoc3)OC(=O)[C@H]3O[C@]321

>  <InChIKey>  (45) 
KBDSLGBFQAGHBE-MSGMIQHVSA-N

$$$$

     RDKit          2D

 30 34  0  0  0  0  0  0  0  0999 V2000
   13.6597  -18.0442    0.0000 C   0  0  0  0  0  0  0  0  0  0  0  0
   13.6586  -18.8637    0.0000 C   0  0  0  0  0  0  0  0  0  0  0  0
   14.3666  -19.2727    0.0000 C   0  0  0  0  0  0  0  0  0  0  0  0
   14.3648  -17.6353    0.0000 C   0  0  0  0  0  0  0  0  0  0  0  0
   15.0734  -18.0406    0.0000 C   0  0  0  0  0  0  0  0  0  0  0  0
   15.0737  -18.8638    0.0000 C   0  0  0  0  0  0  0  0  0  0  0  0
   15.8567  -19.1180    0.0000 N   0  0  0  0  0  0  0  0  0  0  0  0
   15.8563  -17.7861    0.0000 C   0  0  0  0  0  0  0  0  0  0  0  0
   16.3404  -18.4532    0.0000 C   0  0  0  0  0  0  0  0  0  0  0  0
   17.1557  -18.3679    0.0000 C   0  0  0  0  0  0  0  0  0  0  0  0
   17.4932  -17.6165    0.0000 N   0  0  0  0  0  0  0  0  0  0  0  0
   17.0090  -16.9494    0.0000 C   0  0  0  0  0  0  0  0  0  0  0  0
   16.1874  -17.0337    0.0000 C   0  0  0  0  0  0  0  0  0  0  0  0
   18.3061  -17.5326    0.0000 C   0  0  0  0  0  0  0  0  0  0  0  0
   18.7852  -18.1946    0.0000 O   0  0  0  0  0  0  0  0  0  0  0  0
   18.6399  -16.7867    0.0000 C   0  0  0  0  0  0  0  0  0  0  0  0
   19.4530  -16.7068    0.0000 C   0  0  0  0  0  0  0  0  0  0  0  0
   19.7868  -15.9618    0.0000 C   0  0  0  0  0  0  0  0  0  0  0  0
   19.3075  -15.2988    0.0000 C   0  0  0  0  0  0  0  0  0  0  0  0
   18.4907  -15.3857    0.0000 C   0  0  0  0  0  0  0  0  0  0  0  0
   18.1607  -16.1310    0.0000 C   0  0  0  0  0  0  0  0  0  0  0  0
   17.6357  -19.0265    0.0000 C   0  0  0  0  0  0  0  0  0  0  0  0
   17.3002  -19.7729    0.0000 C   0  0  0  0  0  0  0  0  0  0  0  0
   17.7786  -20.4345    0.0000 C   0  0  0  0  0  0  0  0  0  0  0  0
   18.5924  -20.3510    0.0000 C   0  0  0  0  0  0  0  0  0  0  0  0
   18.9255  -19.6001    0.0000 C   0  0  0  0  0  0  0  0  0  0  0  0
   18.4451  -18.9417    0.0000 C   0  0  0  0  0  0  0  0  0  0  0  0
   19.6403  -14.5524    0.0000 Cl  0  0  0  0  0  0  0  0  0  0  0  0
   17.4445  -21.1803    0.0000 F   0  0  0  0  0  0  0  0  0  0  0  0
   19.0724  -21.0124    0.0000 F   0  0  0  0  0  0  0  0  0  0  0  0
  1  2  2  0
  2  3  1  0
  3  6  2  0
  5  4  2  0
  4  1  1  0
  5  6  1  0
  6  7  1  0
  7  9  1  0
  8  5  1  0
  8  9  2  0
  8 13  1  0
  9 10  1  0
 10 11  1  0
 11 12  1  0
 12 13  1  0
 11 14  1  0
 14 15  2  0
 14 16  1  0
 16 17  2  0
 17 18  1  0
 18 19  2  0
 19 20  1  0
 20 21  2  0
 21 16  1  0
 22 23  2  0
 23 24  1  0
 24 25  2  0
 25 26  1  0
 26 27  2  0
 27 22  1  0
 10 22  1  0
 19 28  1  0
 24 29  1  0
 25 30  1  0
M  END
>  <Curated_InChIs>  (46) 
InChI=1S/C24H17ClF2N2O/c25-16-8-5-14(6-9-16)24(30)29-12-11-18-17-3-1-2-4-21(17)28-22(18)23(29)15-7-10-19(26)20(27)13-15/h1-10,13,23,28H,11-12H2

>  <threshold>  (46) 
5

>  <pchembl>  (46) 
4.63

>  <Classification>  (46) 
0

>  <source>  (46) 
chembl_28

>  <SMILES>  (46) 
O=C(c1ccc(Cl)cc1)N1CCc2c([nH]c3ccccc23)C1c1ccc(F)c(F)c1

>  <InChIKey>  (46) 
KBMTYOXVAGVZLK-UHFFFAOYSA-N

$$$$

     RDKit          2D

 25 27  0  0  0  0  0  0  0  0999 V2000
   -4.4278  -17.0600    0.0000 C   0  0  0  0  0  0  0  0  0  0  0  0
   -4.4290  -17.8869    0.0000 C   0  0  0  0  0  0  0  0  0  0  0  0
   -3.7146  -18.2994    0.0000 C   0  0  0  0  0  0  0  0  0  0  0  0
   -3.7164  -16.6475    0.0000 C   0  0  0  0  0  0  0  0  0  0  0  0
   -3.0015  -17.0564    0.0000 C   0  0  0  0  0  0  0  0  0  0  0  0
   -3.0027  -17.8889    0.0000 C   0  0  0  0  0  0  0  0  0  0  0  0
   -2.2863  -18.3039    0.0000 C   0  0  0  0  0  0  0  0  0  0  0  0
   -1.5640  -17.8910    0.0000 C   0  0  0  0  0  0  0  0  0  0  0  0
   -1.5628  -17.0584    0.0000 C   0  0  0  0  0  0  0  0  0  0  0  0
   -2.2839  -16.6389    0.0000 O   0  0  0  0  0  0  0  0  0  0  0  0
   -0.8512  -18.3052    0.0000 O   0  0  0  0  0  0  0  0  0  0  0  0
   -0.8535  -19.1297    0.0000 C   0  0  0  0  0  0  0  0  0  0  0  0
   -2.2886  -19.1284    0.0000 O   0  0  0  0  0  0  0  0  0  0  0  0
   -0.8478  -16.6480    0.0000 C   0  0  0  0  0  0  0  0  0  0  0  0
   -0.1362  -17.0662    0.0000 C   0  0  0  0  0  0  0  0  0  0  0  0
    0.5783  -16.6565    0.0000 C   0  0  0  0  0  0  0  0  0  0  0  0
    0.5808  -15.8311    0.0000 C   0  0  0  0  0  0  0  0  0  0  0  0
   -0.1372  -15.4173    0.0000 C   0  0  0  0  0  0  0  0  0  0  0  0
   -0.8489  -15.8295    0.0000 C   0  0  0  0  0  0  0  0  0  0  0  0
    1.2912  -17.0708    0.0000 O   0  0  0  0  0  0  0  0  0  0  0  0
    1.2953  -15.4197    0.0000 O   0  0  0  0  0  0  0  0  0  0  0  0
    2.0088  -15.8327    0.0000 C   0  0  0  0  0  0  0  0  0  0  0  0
   -3.7149  -19.1239    0.0000 O   0  0  0  0  0  0  0  0  0  0  0  0
   -5.1419  -16.6480    0.0000 O   0  0  0  0  0  0  0  0  0  0  0  0
   -5.1421  -15.8235    0.0000 C   0  0  0  0  0  0  0  0  0  0  0  0
 11 12  1  0
  2  3  1  0
  7 13  2  0
  3  6  2  0
  9 14  1  0
  1  2  2  0
 14 15  2  0
  5  4  2  0
 15 16  1  0
  4  1  1  0
 16 17  2  0
  5 10  1  0
 17 18  1  0
  6  7  1  0
 18 19  2  0
 19 14  1  0
  7  8  1  0
 16 20  1  0
  8  9  2  0
 17 21  1  0
  9 10  1  0
 21 22  1  0
  5  6  1  0
  3 23  1  0
  8 11  1  0
  1 24  1  0
 24 25  1  0
M  END
>  <Curated_InChIs>  (47) 
InChI=1S/C18H16O7/c1-22-10-7-12(20)15-14(8-10)25-17(18(24-3)16(15)21)9-4-5-13(23-2)11(19)6-9/h4-8,19-20H,1-3H3

>  <threshold>  (47) 
5

>  <pchembl>  (47) 
4.89

>  <Classification>  (47) 
0

>  <source>  (47) 
chembl_28

>  <SMILES>  (47) 
COc1cc(O)c2c(=O)c(OC)c(-c3ccc(OC)c(O)c3)oc2c1

>  <InChIKey>  (47) 
KPCRYSMUMBNTCK-UHFFFAOYSA-N

$$$$

     RDKit          2D

 50 52  0  0  0  0  0  0  0  0999 V2000
   29.6500  -20.5453    0.0000 C   0  0  0  0  0  0  0  0  0  0  0  0
   29.2455  -21.2552    0.0000 C   0  0  0  0  0  0  0  0  0  0  0  0
   30.0626  -21.2506    0.0000 C   0  0  0  0  0  0  0  0  0  0  0  0
   27.2721  -22.0757    0.0000 C   0  0  0  0  0  0  0  0  0  0  0  0
   27.8472  -20.6769    0.0000 C   0  0  0  0  0  0  0  0  0  0  0  0
   27.8473  -22.6509    0.0000 C   0  0  0  0  0  0  0  0  0  0  0  0
   28.6669  -22.6509    0.0000 C   0  0  0  0  0  0  0  0  0  0  0  0
   29.2462  -22.0757    0.0000 C   0  0  0  0  0  0  0  0  0  0  0  0
   28.6669  -20.6768    0.0000 C   0  0  0  0  0  0  0  0  0  0  0  0
   24.6065  -21.0860    0.0000 C   0  0  0  0  0  0  0  0  0  0  0  0
   25.0934  -20.4273    0.0000 C   0  0  0  0  0  0  0  0  0  0  0  0
   25.0867  -21.7569    0.0000 C   0  0  0  0  0  0  0  0  0  0  0  0
   24.6824  -22.4676    0.0000 O   0  0  0  0  0  0  0  0  0  0  0  0
   25.4554  -19.9726    0.0000 O   0  0  0  0  0  0  0  0  0  0  0  0
   25.8729  -21.5020    0.0000 C   0  0  0  0  0  0  0  0  0  0  0  0
   25.8730  -20.6824    0.0000 C   0  0  0  0  0  0  0  0  0  0  0  0
   26.4496  -20.1058    0.0000 C   0  0  0  0  0  0  0  0  0  0  0  0
   26.4497  -22.0787    0.0000 C   0  0  0  0  0  0  0  0  0  0  0  0
   27.8460  -21.5020    0.0000 C   0  0  0  0  0  0  0  0  0  0  0  0
   27.2693  -20.1057    0.0000 C   0  0  0  0  0  0  0  0  0  0  0  0
   26.1368  -19.3508    0.0000 O   0  0  0  0  0  0  0  0  0  0  0  0
   27.5820  -19.3507    0.0000 C   0  0  0  0  0  0  0  0  0  0  0  0
   30.0008  -22.3895    0.0000 O   0  0  0  0  0  0  0  0  0  0  0  0
   27.5346  -23.4059    0.0000 O   0  0  0  0  0  0  0  0  0  0  0  0
   27.9465  -24.1119    0.0000 C   0  0  0  0  0  0  0  0  0  0  0  0
   27.5412  -24.8215    0.0000 C   0  0  0  0  0  0  0  0  0  0  0  0
   28.7637  -24.1081    0.0000 O   0  0  0  0  0  0  0  0  0  0  0  0
   29.0858  -23.3521    0.0000 O   0  0  0  0  0  0  0  0  0  0  0  0
   23.8652  -22.4731    0.0000 C   0  0  0  0  0  0  0  0  0  0  0  0
   23.4615  -23.1836    0.0000 C   0  0  0  0  0  0  0  0  0  0  0  0
   23.4519  -21.7682    0.0000 O   0  0  0  0  0  0  0  0  0  0  0  0
   26.1384  -22.8343    0.0000 O   0  0  0  0  0  0  0  0  0  0  0  0
   26.1336  -23.6490    0.0000 C   0  0  0  0  0  0  0  0  0  0  0  0
   26.8389  -24.0618    0.0000 O   0  0  0  0  0  0  0  0  0  0  0  0
   25.4235  -24.0534    0.0000 C   0  0  0  0  0  0  0  0  0  0  0  0
   22.6441  -23.1841    0.0000 C   0  0  0  0  0  0  0  0  0  0  0  0
   22.2404  -23.8937    0.0000 C   0  0  0  0  0  0  0  0  0  0  0  0
   22.6538  -24.5996    0.0000 C   0  0  0  0  0  0  0  0  0  0  0  0
   23.4752  -24.5914    0.0000 C   0  0  0  0  0  0  0  0  0  0  0  0
   23.8752  -23.8812    0.0000 C   0  0  0  0  0  0  0  0  0  0  0  0
   24.0246  -20.5041    0.0000 C   0  0  0  0  0  0  0  0  0  0  0  0
   23.8967  -21.4905    0.0000 O   0  0  0  0  0  0  0  0  0  0  0  0
   29.9029  -23.3400    0.0000 C   0  0  0  0  0  0  0  0  0  0  0  0
   30.3219  -24.0415    0.0000 C   0  0  0  0  0  0  0  0  0  0  0  0
   30.3009  -22.6263    0.0000 O   0  0  0  0  0  0  0  0  0  0  0  0
   23.1868  -21.0819    0.0000 C   0  0  0  0  0  0  0  0  0  0  0  0
   23.1857  -20.2647    0.0000 O   0  0  0  0  0  0  0  0  0  0  0  0
   22.4796  -21.4914    0.0000 C   0  0  0  0  0  0  0  0  0  0  0  0
   26.7240  -24.8253    0.0000 C   0  0  0  0  0  0  0  0  0  0  0  0
   27.9531  -25.5273    0.0000 C   0  0  0  0  0  0  0  0  0  0  0  0
  2  1  1  0
  3  2  1  0
  4  6  1  0
  6  7  1  0
  7  8  1  0
  8  2  1  0
  2  9  1  0
  9  5  2  0
 16 11  1  0
 11 10  1  0
 10 12  1  0
 12 15  1  0
 12 13  1  1
 16 14  1  1
 15 16  1  0
 16 17  1  0
 15 18  1  1
 18  4  1  0
  4 19  2  0
  5 20  1  0
 20 17  1  0
 17 21  2  0
 20 22  1  1
  8 23  2  0
  6 24  1  1
 24 25  1  0
 25 26  1  0
 25 27  2  0
  7 28  1  6
 13 29  1  0
 29 30  1  0
 29 31  2  0
 18 32  1  6
 32 33  1  0
 33 34  2  0
 33 35  1  0
 30 36  2  0
 36 37  1  0
 37 38  2  0
 38 39  1  0
 39 40  2  0
 40 30  1  0
 10 41  1  1
 10 42  1  0
 28 43  1  0
 43 44  1  0
 43 45  2  0
 42 46  1  0
 46 47  2  0
 46 48  1  0
 26 49  1  0
 26 50  1  0
M  END
>  <Curated_InChIs>  (48) 
InChI=1S/C37H46O13/c1-19(2)33(43)48-28-21(4)27(46-22(5)38)26-32(49-34(44)25-14-12-11-13-15-25)36(10,50-24(7)40)18-37(26,45)30(41)20(3)16-17-35(8,9)31(42)29(28)47-23(6)39/h11-17,19-20,26-29,32,45H,4,18H2,1-3,5-10H3

>  <threshold>  (48) 
5

>  <pchembl>  (48) 
4.89

>  <Classification>  (48) 
0

>  <source>  (48) 
chembl_28

>  <SMILES>  (48) 
C=C1[C@H](OC(=O)C(C)C)[C@@H](OC(C)=O)C(=O)C(C)(C)/C=C/[C@H](C)C(=O)[C@@]2(O)C[C@@](C)(OC(C)=O)[C@H](OC(=O)c3ccccc3)[C@@H]2[C@H]1OC(C)=O

>  <InChIKey>  (48) 
LNVYWYBRLYRTRL-SQYKWSPOSA-N

$$$$

     RDKit          2D

 44 46  0  0  0  0  0  0  0  0999 V2000
   26.0841   -2.5217    0.0000 C   0  0  0  0  0  0  0  0  0  0  0  0
   25.6796   -3.2316    0.0000 C   0  0  0  0  0  0  0  0  0  0  0  0
   26.4966   -3.2270    0.0000 C   0  0  0  0  0  0  0  0  0  0  0  0
   23.7061   -4.0521    0.0000 C   0  0  0  0  0  0  0  0  0  0  0  0
   24.2813   -2.6532    0.0000 C   0  0  0  0  0  0  0  0  0  0  0  0
   24.2814   -4.6273    0.0000 C   0  0  0  0  0  0  0  0  0  0  0  0
   25.1010   -4.6273    0.0000 C   0  0  0  0  0  0  0  0  0  0  0  0
   25.6803   -4.0521    0.0000 C   0  0  0  0  0  0  0  0  0  0  0  0
   25.1010   -2.6531    0.0000 C   0  0  0  0  0  0  0  0  0  0  0  0
   21.0406   -3.0624    0.0000 C   0  0  0  0  0  0  0  0  0  0  0  0
   21.5275   -2.4037    0.0000 C   0  0  0  0  0  0  0  0  0  0  0  0
   21.5207   -3.7333    0.0000 C   0  0  0  0  0  0  0  0  0  0  0  0
   21.1165   -4.4439    0.0000 O   0  0  0  0  0  0  0  0  0  0  0  0
   20.2234   -3.0561    0.0000 C   0  0  0  0  0  0  0  0  0  0  0  0
   21.8895   -1.9490    0.0000 O   0  0  0  0  0  0  0  0  0  0  0  0
   22.3070   -3.4784    0.0000 C   0  0  0  0  0  0  0  0  0  0  0  0
   22.3071   -2.6588    0.0000 C   0  0  0  0  0  0  0  0  0  0  0  0
   22.8837   -2.0822    0.0000 C   0  0  0  0  0  0  0  0  0  0  0  0
   22.8838   -4.0551    0.0000 C   0  0  0  0  0  0  0  0  0  0  0  0
   24.2801   -3.4784    0.0000 C   0  0  0  0  0  0  0  0  0  0  0  0
   23.7033   -2.0821    0.0000 C   0  0  0  0  0  0  0  0  0  0  0  0
   21.0723   -1.9563    0.0000 C   0  0  0  0  0  0  0  0  0  0  0  0
   20.6574   -1.2523    0.0000 O   0  0  0  0  0  0  0  0  0  0  0  0
   20.6701   -2.6676    0.0000 C   0  0  0  0  0  0  0  0  0  0  0  0
   22.5709   -1.3272    0.0000 O   0  0  0  0  0  0  0  0  0  0  0  0
   24.0160   -1.3271    0.0000 C   0  0  0  0  0  0  0  0  0  0  0  0
   26.4348   -4.3659    0.0000 O   0  0  0  0  0  0  0  0  0  0  0  0
   23.9687   -5.3823    0.0000 O   0  0  0  0  0  0  0  0  0  0  0  0
   24.3806   -6.0883    0.0000 C   0  0  0  0  0  0  0  0  0  0  0  0
   23.9753   -6.7979    0.0000 C   0  0  0  0  0  0  0  0  0  0  0  0
   25.1977   -6.0845    0.0000 O   0  0  0  0  0  0  0  0  0  0  0  0
   25.5198   -5.3285    0.0000 O   0  0  0  0  0  0  0  0  0  0  0  0
   20.2993   -4.4495    0.0000 C   0  0  0  0  0  0  0  0  0  0  0  0
   19.8955   -5.1600    0.0000 C   0  0  0  0  0  0  0  0  0  0  0  0
   19.8859   -3.7446    0.0000 O   0  0  0  0  0  0  0  0  0  0  0  0
   19.0802   -5.1620    0.0000 C   0  0  0  0  0  0  0  0  0  0  0  0
   18.6765   -5.8717    0.0000 C   0  0  0  0  0  0  0  0  0  0  0  0
   19.0900   -6.5776    0.0000 C   0  0  0  0  0  0  0  0  0  0  0  0
   19.9113   -6.5694    0.0000 C   0  0  0  0  0  0  0  0  0  0  0  0
   20.3113   -5.8592    0.0000 C   0  0  0  0  0  0  0  0  0  0  0  0
   22.5725   -4.8107    0.0000 O   0  0  0  0  0  0  0  0  0  0  0  0
   22.5677   -5.6254    0.0000 C   0  0  0  0  0  0  0  0  0  0  0  0
   23.2730   -6.0382    0.0000 O   0  0  0  0  0  0  0  0  0  0  0  0
   21.8576   -6.0298    0.0000 C   0  0  0  0  0  0  0  0  0  0  0  0
  2  1  1  0
  3  2  1  0
  4  6  1  0
  6  7  1  0
  7  8  1  0
  8  2  1  0
  2  9  1  0
  9  5  2  0
 17 11  1  0
 11 10  1  0
 10 12  1  0
 12 16  1  0
 12 13  1  1
 10 14  1  1
 17 15  1  1
 16 17  1  0
 17 18  1  0
 16 19  1  1
 19  4  1  0
  4 20  2  0
  5 21  1  0
 21 18  1  0
 15 22  1  0
 22 23  2  0
 22 24  1  0
 18 25  2  0
 21 26  1  1
  8 27  2  0
  6 28  1  1
 28 29  1  0
 29 30  1  0
 29 31  2  0
  7 32  1  6
 13 33  1  0
 33 34  1  0
 33 35  2  0
 34 36  2  0
 36 37  1  0
 37 38  2  0
 38 39  1  0
 39 40  2  0
 40 34  1  0
 19 41  1  6
 41 42  1  0
 42 43  2  0
 42 44  1  0
M  END
>  <Curated_InChIs>  (49) 
InChI=1S/C33H40O11/c1-17-14-15-32(7,8)30(39)25(37)28(42-21(5)35)19(3)27(41-20(4)34)24-26(43-31(40)23-12-10-9-11-13-23)18(2)16-33(24,29(17)38)44-22(6)36/h9-15,17-18,24-28,37H,3,16H2,1-2,4-8H3

>  <threshold>  (49) 
5

>  <pchembl>  (49) 
4.88

>  <Classification>  (49) 
0

>  <source>  (49) 
chembl_28

>  <SMILES>  (49) 
C=C1[C@H](OC(C)=O)[C@@H](O)C(=O)C(C)(C)/C=C/[C@H](C)C(=O)[C@@]2(OC(C)=O)C[C@H](C)[C@H](OC(=O)c3ccccc3)[C@@H]2[C@H]1OC(C)=O

>  <InChIKey>  (49) 
LOFAXWYWIGZHPN-PSLQACODSA-N

$$$$

     RDKit          2D

 34 39  0  0  0  0  0  0  0  0999 V2000
    3.0437   -0.0963    0.0000 C   0  0  0  0  0  0  0  0  0  0  0  0
    3.9511   -0.8815    0.0000 C   0  0  0  0  0  0  0  0  0  0  0  0
    4.9531   -1.9978    0.0000 C   0  0  0  0  0  0  0  0  0  0  0  0
    4.2010   -3.2956    0.0000 C   0  0  0  0  0  0  0  0  0  0  0  0
    2.7343   -2.9815    0.0000 C   0  0  0  0  0  0  0  0  0  0  0  0
    2.5987   -1.5004    0.0000 N   0  0  0  0  0  0  0  0  0  0  0  0
    1.2990   -0.7500    0.0000 C   0  0  0  0  0  0  0  0  0  0  0  0
    1.2990    0.7500    0.0000 N   0  0  0  0  0  0  0  0  0  0  0  0
    0.0000    1.5000    0.0000 C   0  0  0  0  0  0  0  0  0  0  0  0
    0.0031    3.0008    0.0000 N   0  0  0  0  0  0  0  0  0  0  0  0
    1.3039    3.7494    0.0000 C   0  0  0  0  0  0  0  0  0  0  0  0
    1.4469    5.2298    0.0000 C   0  0  0  0  0  0  0  0  0  0  0  0
    2.9152    5.5365    0.0000 C   0  0  0  0  0  0  0  0  0  0  0  0
    3.6607    4.2349    0.0000 N   0  0  0  0  0  0  0  0  0  0  0  0
    2.6531    3.1237    0.0000 N   0  0  0  0  0  0  0  0  0  0  0  0
    3.5304    6.9054    0.0000 C   0  0  0  0  0  0  0  0  0  0  0  0
    3.4681    8.3217    0.0000 C   0  0  0  0  0  0  0  0  0  0  0  0
    4.7759    7.5871    0.0000 C   0  0  0  0  0  0  0  0  0  0  0  0
   -1.2990    0.7500    0.0000 C   0  0  0  0  0  0  0  0  0  0  0  0
   -2.7248    1.2135    0.0000 C   0  0  0  0  0  0  0  0  0  0  0  0
   -3.6065    0.0000    0.0000 C   0  0  0  0  0  0  0  0  0  0  0  0
   -2.7248   -1.2135    0.0000 C   0  0  0  0  0  0  0  0  0  0  0  0
   -1.2990   -0.7500    0.0000 N   0  0  0  0  0  0  0  0  0  0  0  0
    0.0000   -1.5000    0.0000 N   0  0  0  0  0  0  0  0  0  0  0  0
    5.3712   -0.4376    0.0000 C   0  0  0  0  0  0  0  0  0  0  0  0
    5.6155    0.7373    0.0000 O   0  0  0  0  0  0  0  0  0  0  0  0
    6.4913   -1.4365    0.0000 N   0  0  0  0  0  0  0  0  0  0  0  0
    7.9168   -0.9668    0.0000 C   0  0  0  0  0  0  0  0  0  0  0  0
    9.0377   -1.9636    0.0000 C   0  0  0  0  0  0  0  0  0  0  0  0
   10.4614   -1.4913    0.0000 C   0  0  0  0  0  0  0  0  0  0  0  0
   10.7643   -0.0222    0.0000 C   0  0  0  0  0  0  0  0  0  0  0  0
   11.9032    0.3557    0.0000 F   0  0  0  0  0  0  0  0  0  0  0  0
    9.6434    0.9746    0.0000 N   0  0  0  0  0  0  0  0  0  0  0  0
    8.2197    0.5023    0.0000 C   0  0  0  0  0  0  0  0  0  0  0  0
  2  1  1  1
  2  3  1  0
  3  4  1  0
  4  5  1  0
  5  6  1  0
  6  2  1  0
  6  7  1  0
  7  8  1  0
  8  9  2  0
  9 10  1  0
 10 11  1  0
 11 12  2  0
 12 13  1  0
 13 14  2  0
 14 15  1  0
 15 11  1  0
 13 16  1  0
 16 17  1  0
 17 18  1  0
 18 16  1  0
  9 19  1  0
 19 20  2  0
 20 21  1  0
 21 22  2  0
 22 23  1  0
 23 19  1  0
 23 24  1  0
 24  7  2  0
  2 25  1  0
 25 26  2  0
 25 27  1  0
 27 28  1  0
 28 29  2  0
 29 30  1  0
 30 31  2  0
 31 32  1  0
 31 33  1  0
 33 34  2  0
 34 28  1  0
M  END
>  <Curated_InChIs>  (50) 
InChI=1S/C23H24FN9O/c1-23(21(34)26-15-7-8-18(24)25-13-15)9-3-10-32(23)22-28-20(17-4-2-11-33(17)31-22)27-19-12-16(29-30-19)14-5-6-14/h2,4,7-8,11-14H,3,5-6,9-10H2,1H3,(H,26,34)(H2,27,28,29,30,31)

>  <threshold>  (50) 
5

>  <pchembl>  (50) 
4.75

>  <Classification>  (50) 
0

>  <source>  (50) 
chembl_28

>  <SMILES>  (50) 
C[C@@]1(C(=O)Nc2ccc(F)nc2)CCCN1c1nc(Nc2cc(C3CC3)n[nH]2)c2cccn2n1

>  <InChIKey>  (50) 
LQVXSNNAFNGRAH-QHCPKHFHSA-N

$$$$

     RDKit          2D

 29 33  0  0  0  0  0  0  0  0999 V2000
    3.7496    1.2177    0.0000 C   0  0  0  0  0  0  0  0  0  0  0  0
    0.0000    1.9521    0.0000 C   0  0  0  0  0  0  0  0  0  0  0  0
    1.1983    1.2177    0.0000 C   0  0  0  0  0  0  0  0  0  0  0  0
   -2.6286   -0.9664    0.0000 C   0  0  0  0  0  0  0  0  0  0  0  0
    1.1983   -0.2513    0.0000 C   0  0  0  0  0  0  0  0  0  0  0  0
   -3.9042   -0.2513    0.0000 C   0  0  0  0  0  0  0  0  0  0  0  0
   -1.3723    1.2177    0.0000 C   0  0  0  0  0  0  0  0  0  0  0  0
    3.7496   -0.2513    0.0000 C   0  0  0  0  0  0  0  0  0  0  0  0
    2.4740    1.9521    0.0000 C   0  0  0  0  0  0  0  0  0  0  0  0
    1.2148    2.4175    0.0000 C   0  0  0  0  0  0  0  0  0  0  0  0
   -2.6325    0.2336    0.0000 C   0  0  0  0  0  0  0  0  0  0  0  0
   -5.1992   -0.9664    0.0000 C   0  0  0  0  0  0  0  0  0  0  0  0
    3.3630    2.5706    0.0000 C   0  0  0  0  0  0  0  0  0  0  0  0
    3.4017    3.7882    0.0000 C   0  0  0  0  0  0  0  0  0  0  0  0
    2.7059    4.2135    0.0000 C   0  0  0  0  0  0  0  0  0  0  0  0
    1.2773   -4.6995    0.0000 C   0  0  0  0  0  0  0  0  0  0  0  0
    0.2323   -5.2894    0.0000 C   0  0  0  0  0  0  0  0  0  0  0  0
   -5.1992   -2.4353    0.0000 C   0  0  0  0  0  0  0  0  0  0  0  0
   -3.9042   -3.1504    0.0000 C   0  0  0  0  0  0  0  0  0  0  0  0
   -2.6286   -2.4353    0.0000 C   0  0  0  0  0  0  0  0  0  0  0  0
   -1.3723   -3.1504    0.0000 C   0  0  0  0  0  0  0  0  0  0  0  0
    0.0000   -2.4353    0.0000 C   0  0  0  0  0  0  0  0  0  0  0  0
    0.0000   -0.9664    0.0000 C   0  0  0  0  0  0  0  0  0  0  0  0
   -1.3723   -0.2513    0.0000 C   0  0  0  0  0  0  0  0  0  0  0  0
    2.9605    5.3861    0.0000 O   0  0  0  0  0  0  0  0  0  0  0  0
    1.2756    4.0395    0.0000 O   0  0  0  0  0  0  0  0  0  0  0  0
    2.3105   -5.3099    0.0000 O   0  0  0  0  0  0  0  0  0  0  0  0
   -6.2326   -3.0452    0.0000 O   0  0  0  0  0  0  0  0  0  0  0  0
    1.2914   -3.1988    0.0000 S   0  0  0  0  0  0  0  0  0  0  0  0
  8  1  1  0
  9  1  1  1
  2  3  1  0
  7  2  1  0
  3  5  1  0
  3  9  1  0
  3 10  1  1
  6  4  1  0
  4 11  1  1
  4 20  1  0
  4 24  1  0
  5  8  1  1
 23  5  1  0
  6 12  1  0
 24  7  1  1
 13  9  1  0
  9 26  1  0
 12 18  1  0
 13 14  1  0
 14 15  1  0
 15 25  2  0
 15 26  1  0
 16 17  1  0
 16 27  2  0
 16 29  1  0
 18 19  1  0
 18 28  2  0
 19 20  2  0
 20 21  1  0
 21 22  1  0
 23 22  1  6
 22 29  1  6
 23 24  1  0
M  END
>  <Curated_InChIs>  (51) 
InChI=1S/C24H32O4S/c1-14(25)29-19-13-15-12-16(26)4-8-22(15,2)17-5-9-23(3)18(21(17)19)6-10-24(23)11-7-20(27)28-24/h12,17-19,21H,4-11,13H2,1-3H3

>  <threshold>  (51) 
5

>  <pchembl>  (51) 
4.63

>  <Classification>  (51) 
0

>  <source>  (51) 
chembl_28

>  <SMILES>  (51) 
CC(=O)S[C@@H]1CC2=CC(=O)CC[C@]2(C)[C@H]2CC[C@@]3(C)[C@@H](CC[C@@]34CCC(=O)O4)[C@@H]21

>  <InChIKey>  (51) 
LXMSZDCAJNLERA-ZHYRCANASA-N

$$$$

     RDKit          2D

 25 27  0  0  0  0  0  0  0  0999 V2000
    7.6998   -4.3902    0.0000 C   0  0  0  0  0  0  0  0  0  0  0  0
    7.2876   -5.1122    0.0000 C   0  0  0  0  0  0  0  0  0  0  0  0
    6.4582   -5.1152    0.0000 C   0  0  0  0  0  0  0  0  0  0  0  0
    7.2852   -3.6749    0.0000 C   0  0  0  0  0  0  0  0  0  0  0  0
    6.4572   -3.6744    0.0000 C   0  0  0  0  0  0  0  0  0  0  0  0
    6.0420   -4.3988    0.0000 C   0  0  0  0  0  0  0  0  0  0  0  0
    5.2247   -4.2278    0.0000 N   0  0  0  0  0  0  0  0  0  0  0  0
    5.1348   -3.3976    0.0000 C   0  0  0  0  0  0  0  0  0  0  0  0
    5.8965   -3.0557    0.0000 N   0  0  0  0  0  0  0  0  0  0  0  0
    4.4157   -2.9854    0.0000 S   0  0  0  0  0  0  0  0  0  0  0  0
    3.6990   -3.4021    0.0000 C   0  0  0  0  0  0  0  0  0  0  0  0
    4.4130   -2.1565    0.0000 O   0  0  0  0  0  0  0  0  0  0  0  0
    2.9799   -2.9899    0.0000 C   0  0  0  0  0  0  0  0  0  0  0  0
    2.2646   -3.4103    0.0000 C   0  0  0  0  0  0  0  0  0  0  0  0
    1.5458   -2.9987    0.0000 C   0  0  0  0  0  0  0  0  0  0  0  0
    1.5429   -2.1690    0.0000 C   0  0  0  0  0  0  0  0  0  0  0  0
    2.2644   -1.7524    0.0000 C   0  0  0  0  0  0  0  0  0  0  0  0
    2.9801   -2.1664    0.0000 N   0  0  0  0  0  0  0  0  0  0  0  0
    2.2692   -4.2391    0.0000 C   0  0  0  0  0  0  0  0  0  0  0  0
    0.8295   -3.4158    0.0000 O   0  0  0  0  0  0  0  0  0  0  0  0
    0.1102   -3.0039    0.0000 C   0  0  0  0  0  0  0  0  0  0  0  0
   -0.6062   -3.4209    0.0000 C   0  0  0  0  0  0  0  0  0  0  0  0
   -1.3255   -3.0091    0.0000 F   0  0  0  0  0  0  0  0  0  0  0  0
   -0.6032   -4.2499    0.0000 F   0  0  0  0  0  0  0  0  0  0  0  0
   -1.3163   -3.8386    0.0000 F   0  0  0  0  0  0  0  0  0  0  0  0
 10 12  1  0
  2  3  1  0
 11 13  1  0
  3  6  2  0
 13 14  2  0
  1  2  2  0
 14 15  1  0
  5  4  2  0
 15 16  2  0
  6  7  1  0
 16 17  1  0
  7  8  1  0
 17 18  2  0
 18 13  1  0
  8  9  2  0
 14 19  1  0
  9  5  1  0
 15 20  1  0
  4  1  1  0
 20 21  1  0
  8 10  1  0
 21 22  1  0
  5  6  1  0
 22 23  1  0
 10 11  1  0
 22 24  1  0
 22 25  1  0
M  CHG  2  10   1  12  -1
M  END
>  <Curated_InChIs>  (52) 
InChI=1S/C16H14F3N3O2S/c1-10-13(20-7-6-14(10)24-9-16(17,18)19)8-25(23)15-21-11-4-2-3-5-12(11)22-15/h2-7H,8-9H2,1H3,(H,21,22)

>  <threshold>  (52) 
5

>  <pchembl>  (52) 
4.2

>  <Classification>  (52) 
0

>  <source>  (52) 
chembl_28

>  <SMILES>  (52) 
Cc1c(OCC(F)(F)F)ccnc1C[S+]([O-])c1nc2ccccc2[nH]1

>  <InChIKey>  (52) 
MJIHNNLFOKEZEW-UHFFFAOYSA-N

$$$$

     RDKit          2D

 21 23  0  0  0  0  0  0  0  0999 V2000
   -4.3988   -3.6644    0.0000 C   0  0  0  0  0  0  0  0  0  0  0  0
   -4.4000   -4.4914    0.0000 C   0  0  0  0  0  0  0  0  0  0  0  0
   -3.6856   -4.9040    0.0000 C   0  0  0  0  0  0  0  0  0  0  0  0
   -3.6874   -3.2520    0.0000 C   0  0  0  0  0  0  0  0  0  0  0  0
   -2.9725   -3.6608    0.0000 C   0  0  0  0  0  0  0  0  0  0  0  0
   -2.9737   -4.4935    0.0000 C   0  0  0  0  0  0  0  0  0  0  0  0
   -2.2572   -4.9084    0.0000 C   0  0  0  0  0  0  0  0  0  0  0  0
   -1.5349   -4.4955    0.0000 C   0  0  0  0  0  0  0  0  0  0  0  0
   -1.5337   -3.6629    0.0000 C   0  0  0  0  0  0  0  0  0  0  0  0
   -2.2548   -3.2433    0.0000 O   0  0  0  0  0  0  0  0  0  0  0  0
   -2.2595   -5.7329    0.0000 O   0  0  0  0  0  0  0  0  0  0  0  0
   -0.8204   -3.2550    0.0000 C   0  0  0  0  0  0  0  0  0  0  0  0
   -0.1070   -3.6707    0.0000 C   0  0  0  0  0  0  0  0  0  0  0  0
    0.6075   -3.2609    0.0000 C   0  0  0  0  0  0  0  0  0  0  0  0
    0.6099   -2.4355    0.0000 C   0  0  0  0  0  0  0  0  0  0  0  0
   -0.1081   -2.0216    0.0000 C   0  0  0  0  0  0  0  0  0  0  0  0
   -0.8197   -2.4339    0.0000 C   0  0  0  0  0  0  0  0  0  0  0  0
   -5.1144   -4.9030    0.0000 C   0  0  0  0  0  0  0  0  0  0  0  0
   -3.6859   -5.7285    0.0000 O   0  0  0  0  0  0  0  0  0  0  0  0
   -5.1130   -3.2524    0.0000 O   0  0  0  0  0  0  0  0  0  0  0  0
   -5.1132   -2.4279    0.0000 C   0  0  0  0  0  0  0  0  0  0  0  0
  9 10  1  0
  5  6  1  0
  7 11  2  0
  2  3  1  0
 12 13  2  0
  3  6  2  0
 13 14  1  0
  1  2  2  0
 14 15  2  0
  5  4  2  0
 15 16  1  0
  4  1  1  0
 16 17  2  0
 17 12  1  0
  9 12  1  0
  5 10  1  0
  2 18  1  0
  6  7  1  0
  3 19  1  0
  7  8  1  0
  1 20  1  0
  8  9  1  0
 20 21  1  0
M  END
>  <Curated_InChIs>  (53) 
InChI=1S/C17H16O4/c1-10-13(20-2)9-15-16(17(10)19)12(18)8-14(21-15)11-6-4-3-5-7-11/h3-7,9,14,19H,8H2,1-2H3

>  <threshold>  (53) 
5

>  <pchembl>  (53) 
4.54

>  <Classification>  (53) 
0

>  <source>  (53) 
chembl_28

>  <SMILES>  (53) 
COc1cc2c(c(O)c1C)C(=O)CC(c1ccccc1)O2

>  <InChIKey>  (53) 
MJPLGHSVCRZIQU-UHFFFAOYSA-N

$$$$

     RDKit          2D

 29 31  0  0  0  0  0  0  0  0999 V2000
    8.5417   -2.2000    0.0000 C   0  0  0  0  0  0  0  0  0  0  0  0
    8.5405   -3.0275    0.0000 C   0  0  0  0  0  0  0  0  0  0  0  0
    9.2534   -3.4405    0.0000 C   0  0  0  0  0  0  0  0  0  0  0  0
    9.2514   -1.7872    0.0000 C   0  0  0  0  0  0  0  0  0  0  0  0
    9.9696   -2.1959    0.0000 C   0  0  0  0  0  0  0  0  0  0  0  0
    9.9687   -3.0250    0.0000 C   0  0  0  0  0  0  0  0  0  0  0  0
   10.6823   -3.4379    0.0000 C   0  0  0  0  0  0  0  0  0  0  0  0
   11.4013   -3.0265    0.0000 C   0  0  0  0  0  0  0  0  0  0  0  0
   11.4023   -2.1975    0.0000 C   0  0  0  0  0  0  0  0  0  0  0  0
   10.6841   -1.7799    0.0000 O   0  0  0  0  0  0  0  0  0  0  0  0
   10.6803   -4.2629    0.0000 O   0  0  0  0  0  0  0  0  0  0  0  0
   12.1176   -1.7865    0.0000 C   0  0  0  0  0  0  0  0  0  0  0  0
   12.8283   -2.2012    0.0000 C   0  0  0  0  0  0  0  0  0  0  0  0
   13.5431   -1.7908    0.0000 C   0  0  0  0  0  0  0  0  0  0  0  0
   13.5453   -0.9649    0.0000 C   0  0  0  0  0  0  0  0  0  0  0  0
   12.8266   -0.5511    0.0000 C   0  0  0  0  0  0  0  0  0  0  0  0
   12.1147   -0.9638    0.0000 C   0  0  0  0  0  0  0  0  0  0  0  0
   12.8254    0.2739    0.0000 O   0  0  0  0  0  0  0  0  0  0  0  0
   13.5393    0.6874    0.0000 C   0  0  0  0  0  0  0  0  0  0  0  0
   14.2600   -0.5530    0.0000 O   0  0  0  0  0  0  0  0  0  0  0  0
   14.9742   -0.9660    0.0000 C   0  0  0  0  0  0  0  0  0  0  0  0
    9.2540   -4.2655    0.0000 O   0  0  0  0  0  0  0  0  0  0  0  0
    8.5397   -4.6784    0.0000 C   0  0  0  0  0  0  0  0  0  0  0  0
    7.8254   -3.4390    0.0000 O   0  0  0  0  0  0  0  0  0  0  0  0
    7.1115   -3.0255    0.0000 C   0  0  0  0  0  0  0  0  0  0  0  0
    7.8269   -1.7880    0.0000 O   0  0  0  0  0  0  0  0  0  0  0  0
    7.8263   -0.9630    0.0000 C   0  0  0  0  0  0  0  0  0  0  0  0
    9.2476   -0.9622    0.0000 O   0  0  0  0  0  0  0  0  0  0  0  0
    9.9602   -0.5464    0.0000 C   0  0  0  0  0  0  0  0  0  0  0  0
 13 14  2  0
  1  2  2  0
 14 15  1  0
  5  4  2  0
 15 16  2  0
  4  1  1  0
 16 17  1  0
 17 12  2  0
  5 10  1  0
 16 18  1  0
  6  7  1  0
 18 19  1  0
  7  8  1  0
 15 20  1  0
  8  9  2  0
 20 21  1  0
  9 10  1  0
  3 22  1  0
  5  6  1  0
 22 23  1  0
  7 11  2  0
  2 24  1  0
 24 25  1  0
  9 12  1  0
  1 26  1  0
  2  3  1  0
 26 27  1  0
 12 13  1  0
  4 28  1  0
  3  6  2  0
 28 29  1  0
M  END
>  <Curated_InChIs>  (54) 
InChI=1S/C21H22O8/c1-23-13-8-7-11(9-15(13)24-2)14-10-12(22)16-17(25-3)19(26-4)21(28-6)20(27-5)18(16)29-14/h7-10H,1-6H3

>  <threshold>  (54) 
5

>  <pchembl>  (54) 
4.94

>  <Classification>  (54) 
0

>  <source>  (54) 
chembl_28

>  <SMILES>  (54) 
COc1ccc(-c2cc(=O)c3c(OC)c(OC)c(OC)c(OC)c3o2)cc1OC

>  <InChIKey>  (54) 
MRIAQLRQZPPODS-UHFFFAOYSA-N

$$$$

     RDKit          2D

 29 33  0  0  0  0  0  0  0  0999 V2000
    3.5026  -19.9551    0.0000 C   0  0  0  0  0  0  0  0  0  0  0  0
    3.5015  -20.7746    0.0000 C   0  0  0  0  0  0  0  0  0  0  0  0
    4.2095  -21.1836    0.0000 C   0  0  0  0  0  0  0  0  0  0  0  0
    4.2077  -19.5463    0.0000 C   0  0  0  0  0  0  0  0  0  0  0  0
    4.9163  -19.9515    0.0000 C   0  0  0  0  0  0  0  0  0  0  0  0
    4.9166  -20.7747    0.0000 C   0  0  0  0  0  0  0  0  0  0  0  0
    5.6996  -21.0289    0.0000 N   0  0  0  0  0  0  0  0  0  0  0  0
    5.6991  -19.6970    0.0000 C   0  0  0  0  0  0  0  0  0  0  0  0
    6.1833  -20.3641    0.0000 C   0  0  0  0  0  0  0  0  0  0  0  0
    6.9986  -20.2788    0.0000 C   0  0  0  0  0  0  0  0  0  0  0  0
    7.3361  -19.5274    0.0000 N   0  0  0  0  0  0  0  0  0  0  0  0
    6.8519  -18.8603    0.0000 C   0  0  0  0  0  0  0  0  0  0  0  0
    6.0303  -18.9446    0.0000 C   0  0  0  0  0  0  0  0  0  0  0  0
    8.1490  -19.4435    0.0000 C   0  0  0  0  0  0  0  0  0  0  0  0
    8.6281  -20.1055    0.0000 O   0  0  0  0  0  0  0  0  0  0  0  0
    8.4828  -18.6976    0.0000 C   0  0  0  0  0  0  0  0  0  0  0  0
    9.2959  -18.6177    0.0000 C   0  0  0  0  0  0  0  0  0  0  0  0
    9.6297  -17.8727    0.0000 C   0  0  0  0  0  0  0  0  0  0  0  0
    9.1504  -17.2097    0.0000 C   0  0  0  0  0  0  0  0  0  0  0  0
    8.3336  -17.2966    0.0000 C   0  0  0  0  0  0  0  0  0  0  0  0
    8.0035  -18.0419    0.0000 C   0  0  0  0  0  0  0  0  0  0  0  0
    7.4786  -20.9375    0.0000 C   0  0  0  0  0  0  0  0  0  0  0  0
    7.1431  -21.6838    0.0000 C   0  0  0  0  0  0  0  0  0  0  0  0
    7.6215  -22.3454    0.0000 C   0  0  0  0  0  0  0  0  0  0  0  0
    8.4353  -22.2619    0.0000 C   0  0  0  0  0  0  0  0  0  0  0  0
    8.7684  -21.5110    0.0000 C   0  0  0  0  0  0  0  0  0  0  0  0
    8.2880  -20.8526    0.0000 C   0  0  0  0  0  0  0  0  0  0  0  0
    8.9152  -22.9233    0.0000 O   0  0  0  0  0  0  0  0  0  0  0  0
    8.5825  -23.6696    0.0000 C   0  0  0  0  0  0  0  0  0  0  0  0
  1  2  2  0
  2  3  1  0
  3  6  2  0
  5  4  2  0
  4  1  1  0
  5  6  1  0
  6  7  1  0
  7  9  1  0
  8  5  1  0
  8  9  2  0
  8 13  1  0
  9 10  1  0
 10 11  1  0
 11 12  1  0
 12 13  1  0
 11 14  1  0
 14 15  2  0
 14 16  1  0
 16 17  2  0
 17 18  1  0
 18 19  2  0
 19 20  1  0
 20 21  2  0
 21 16  1  0
 22 23  2  0
 23 24  1  0
 24 25  2  0
 25 26  1  0
 26 27  2  0
 27 22  1  0
 10 22  1  0
 25 28  1  0
 28 29  1  0
M  END
>  <Curated_InChIs>  (55) 
InChI=1S/C25H22N2O2/c1-29-19-13-11-17(12-14-19)24-23-21(20-9-5-6-10-22(20)26-23)15-16-27(24)25(28)18-7-3-2-4-8-18/h2-14,24,26H,15-16H2,1H3

>  <threshold>  (55) 
5

>  <pchembl>  (55) 
4.92

>  <Classification>  (55) 
0

>  <source>  (55) 
chembl_28

>  <SMILES>  (55) 
COc1ccc(C2c3[nH]c4ccccc4c3CCN2C(=O)c2ccccc2)cc1

>  <InChIKey>  (55) 
MUYUCUMUFOGWMY-UHFFFAOYSA-N

$$$$

     RDKit          2D

 23 25  0  0  0  0  0  0  0  0999 V2000
    0.1611   -3.7166    0.0000 C   0  0  0  0  0  0  0  0  0  0  0  0
    0.1599   -4.5440    0.0000 C   0  0  0  0  0  0  0  0  0  0  0  0
    0.8747   -4.9569    0.0000 C   0  0  0  0  0  0  0  0  0  0  0  0
    1.5912   -4.5435    0.0000 C   0  0  0  0  0  0  0  0  0  0  0  0
    1.5883   -3.7130    0.0000 C   0  0  0  0  0  0  0  0  0  0  0  0
    0.8729   -3.3039    0.0000 C   0  0  0  0  0  0  0  0  0  0  0  0
    0.8742   -2.4806    0.0000 O   0  0  0  0  0  0  0  0  0  0  0  0
    0.1585   -2.0703    0.0000 C   0  0  0  0  0  0  0  0  0  0  0  0
    2.3039   -4.9554    0.0000 O   0  0  0  0  0  0  0  0  0  0  0  0
    3.0177   -4.5417    0.0000 C   0  0  0  0  0  0  0  0  0  0  0  0
   -0.5530   -4.9562    0.0000 C   0  0  0  0  0  0  0  0  0  0  0  0
   -1.2674   -4.5414    0.0000 C   0  0  0  0  0  0  0  0  0  0  0  0
   -1.9817   -4.9527    0.0000 C   0  0  0  0  0  0  0  0  0  0  0  0
   -1.9828   -5.7785    0.0000 C   0  0  0  0  0  0  0  0  0  0  0  0
   -1.2636   -6.1915    0.0000 C   0  0  0  0  0  0  0  0  0  0  0  0
   -0.5523   -5.7778    0.0000 C   0  0  0  0  0  0  0  0  0  0  0  0
   -1.2592   -7.0123    0.0000 C   0  0  0  0  0  0  0  0  0  0  0  0
   -1.9742   -7.4261    0.0000 C   0  0  0  0  0  0  0  0  0  0  0  0
   -1.9723   -8.2503    0.0000 C   0  0  0  0  0  0  0  0  0  0  0  0
   -1.2562   -8.6617    0.0000 C   0  0  0  0  0  0  0  0  0  0  0  0
   -0.5405   -8.2428    0.0000 C   0  0  0  0  0  0  0  0  0  0  0  0
   -0.5459   -7.4199    0.0000 C   0  0  0  0  0  0  0  0  0  0  0  0
   -1.2528   -9.4867    0.0000 O   0  0  0  0  0  0  0  0  0  0  0  0
 11 12  2  0
  6  1  2  0
 12 13  1  0
  1  2  1  0
 13 14  2  0
  3  4  1  0
 14 15  1  0
  7  8  1  0
 15 16  2  0
 16 11  1  0
  2 11  1  0
  6  7  1  0
 17 18  2  0
  4  5  2  0
 18 19  1  0
  9 10  1  0
 19 20  2  0
  4  9  1  0
 20 21  1  0
  2  3  2  0
 21 22  2  0
 22 17  1  0
 15 17  1  0
  5  6  1  0
 20 23  1  0
M  END
>  <Curated_InChIs>  (56) 
InChI=1S/C20H18O3/c1-22-19-11-17(12-20(13-19)23-2)16-5-3-4-15(10-16)14-6-8-18(21)9-7-14/h3-13,21H,1-2H3

>  <threshold>  (56) 
5

>  <pchembl>  (56) 
4.7

>  <Classification>  (56) 
0

>  <source>  (56) 
chembl_28

>  <SMILES>  (56) 
COc1cc(OC)cc(-c2cccc(-c3ccc(O)cc3)c2)c1

>  <InChIKey>  (56) 
MWVCWBDXUJZBEC-UHFFFAOYSA-N

$$$$

     RDKit          2D

 22 24  0  0  0  0  0  0  0  0999 V2000
   10.5409   -8.5150    0.0000 C   0  0  0  0  0  0  0  0  0  0  0  0
   10.5409   -9.3363    0.0000 C   0  0  0  0  0  0  0  0  0  0  0  0
    9.8290   -9.7490    0.0000 C   0  0  0  0  0  0  0  0  0  0  0  0
    9.8290  -10.5703    0.0000 C   0  0  0  0  0  0  0  0  0  0  0  0
   10.5409  -10.9789    0.0000 C   0  0  0  0  0  0  0  0  0  0  0  0
   11.2486  -10.5703    0.0000 N   0  0  0  0  0  0  0  0  0  0  0  0
   11.2486   -9.7490    0.0000 C   0  0  0  0  0  0  0  0  0  0  0  0
   11.2486   -8.1064    0.0000 O   0  0  0  0  0  0  0  0  0  0  0  0
    9.8290   -8.1064    0.0000 N   0  0  0  0  0  0  0  0  0  0  0  0
    9.1172   -8.5150    0.0000 C   0  0  0  0  0  0  0  0  0  0  0  0
    8.4054   -8.1064    0.0000 C   0  0  0  0  0  0  0  0  0  0  0  0
    7.6935   -8.5150    0.0000 C   0  0  0  0  0  0  0  0  0  0  0  0
    7.6935   -9.3363    0.0000 C   0  0  0  0  0  0  0  0  0  0  0  0
    8.4054   -9.7490    0.0000 C   0  0  0  0  0  0  0  0  0  0  0  0
    9.1172   -9.3363    0.0000 C   0  0  0  0  0  0  0  0  0  0  0  0
    6.9817  -10.5703    0.0000 C   0  0  0  0  0  0  0  0  0  0  0  0
    6.9817   -9.7490    0.0000 C   0  0  0  0  0  0  0  0  0  0  0  0
    6.2699   -9.3363    0.0000 C   0  0  0  0  0  0  0  0  0  0  0  0
    5.5621   -9.7490    0.0000 C   0  0  0  0  0  0  0  0  0  0  0  0
    5.5621  -10.5703    0.0000 C   0  0  0  0  0  0  0  0  0  0  0  0
    6.2699  -10.9789    0.0000 N   0  0  0  0  0  0  0  0  0  0  0  0
    8.4054   -7.2851    0.0000 F   0  0  0  0  0  0  0  0  0  0  0  0
  1  2  1  0
  2  3  2  0
  3  4  1  0
  4  5  2  0
  5  6  1  0
  6  7  2  0
  2  7  1  0
  1  8  2  0
  1  9  1  0
 10 11  2  0
 11 12  1  0
 12 13  2  0
 13 14  1  0
 14 15  2  0
 10 15  1  0
 16 17  2  0
 17 18  1  0
 18 19  2  0
 19 20  1  0
 20 21  2  0
 16 21  1  0
 13 17  1  0
 11 22  1  0
  9 10  1  0
M  END
>  <Curated_InChIs>  (57) 
InChI=1S/C17H12FN3O/c18-15-9-12(13-3-1-7-19-10-13)5-6-16(15)21-17(22)14-4-2-8-20-11-14/h1-11H,(H,21,22)

>  <threshold>  (57) 
5

>  <pchembl>  (57) 
4.22

>  <Classification>  (57) 
0

>  <source>  (57) 
chembl_28

>  <SMILES>  (57) 
O=C(Nc1ccc(-c2cccnc2)cc1F)c1cccnc1

>  <InChIKey>  (57) 
NITGANQRUXBSKM-UHFFFAOYSA-N

$$$$

     RDKit          2D

 28 32  0  0  0  0  0  0  0  0999 V2000
   30.7795   -6.5829    0.0000 C   0  0  0  0  0  0  0  0  0  0  0  0
   30.7783   -7.4024    0.0000 C   0  0  0  0  0  0  0  0  0  0  0  0
   31.4864   -7.8114    0.0000 C   0  0  0  0  0  0  0  0  0  0  0  0
   31.4846   -6.1740    0.0000 C   0  0  0  0  0  0  0  0  0  0  0  0
   32.1932   -6.5793    0.0000 C   0  0  0  0  0  0  0  0  0  0  0  0
   32.1934   -7.4025    0.0000 C   0  0  0  0  0  0  0  0  0  0  0  0
   32.9764   -7.6566    0.0000 N   0  0  0  0  0  0  0  0  0  0  0  0
   32.9760   -6.3247    0.0000 C   0  0  0  0  0  0  0  0  0  0  0  0
   33.4602   -6.9919    0.0000 C   0  0  0  0  0  0  0  0  0  0  0  0
   34.2755   -6.9066    0.0000 C   0  0  0  0  0  0  0  0  0  0  0  0
   34.6130   -6.1552    0.0000 N   0  0  0  0  0  0  0  0  0  0  0  0
   34.1288   -5.4881    0.0000 C   0  0  0  0  0  0  0  0  0  0  0  0
   33.3071   -5.5724    0.0000 C   0  0  0  0  0  0  0  0  0  0  0  0
   35.4258   -6.0713    0.0000 C   0  0  0  0  0  0  0  0  0  0  0  0
   35.9049   -6.7333    0.0000 O   0  0  0  0  0  0  0  0  0  0  0  0
   35.7596   -5.3254    0.0000 C   0  0  0  0  0  0  0  0  0  0  0  0
   36.5727   -5.2455    0.0000 C   0  0  0  0  0  0  0  0  0  0  0  0
   36.9065   -4.5004    0.0000 C   0  0  0  0  0  0  0  0  0  0  0  0
   36.4273   -3.8374    0.0000 C   0  0  0  0  0  0  0  0  0  0  0  0
   35.6104   -3.9244    0.0000 C   0  0  0  0  0  0  0  0  0  0  0  0
   35.2804   -4.6697    0.0000 C   0  0  0  0  0  0  0  0  0  0  0  0
   34.7554   -7.5652    0.0000 C   0  0  0  0  0  0  0  0  0  0  0  0
   34.4200   -8.3116    0.0000 C   0  0  0  0  0  0  0  0  0  0  0  0
   34.8983   -8.9732    0.0000 C   0  0  0  0  0  0  0  0  0  0  0  0
   35.7121   -8.8897    0.0000 C   0  0  0  0  0  0  0  0  0  0  0  0
   36.0452   -8.1388    0.0000 C   0  0  0  0  0  0  0  0  0  0  0  0
   35.5648   -7.4804    0.0000 C   0  0  0  0  0  0  0  0  0  0  0  0
   36.1921   -9.5511    0.0000 F   0  0  0  0  0  0  0  0  0  0  0  0
  1  2  2  0
  2  3  1  0
  3  6  2  0
  5  4  2  0
  4  1  1  0
  5  6  1  0
  6  7  1  0
  7  9  1  0
  8  5  1  0
  8  9  2  0
  8 13  1  0
  9 10  1  0
 10 11  1  0
 11 12  1  0
 12 13  1  0
 11 14  1  0
 14 15  2  0
 14 16  1  0
 16 17  2  0
 17 18  1  0
 18 19  2  0
 19 20  1  0
 20 21  2  0
 21 16  1  0
 22 23  2  0
 23 24  1  0
 24 25  2  0
 25 26  1  0
 26 27  2  0
 27 22  1  0
 10 22  1  0
 25 28  1  0
M  END
>  <Curated_InChIs>  (58) 
InChI=1S/C24H19FN2O/c25-18-12-10-16(11-13-18)23-22-20(19-8-4-5-9-21(19)26-22)14-15-27(23)24(28)17-6-2-1-3-7-17/h1-13,23,26H,14-15H2

>  <threshold>  (58) 
5

>  <pchembl>  (58) 
4.87

>  <Classification>  (58) 
0

>  <source>  (58) 
chembl_28

>  <SMILES>  (58) 
O=C(c1ccccc1)N1CCc2c([nH]c3ccccc23)C1c1ccc(F)cc1

>  <InChIKey>  (58) 
NMKIACQDOHUVIS-UHFFFAOYSA-N

$$$$

     RDKit          2D

 43 45  0  0  0  0  0  0  0  0999 V2000
   27.5864  -11.5108    0.0000 C   0  0  0  0  0  0  0  0  0  0  0  0
   27.1819  -12.2207    0.0000 C   0  0  0  0  0  0  0  0  0  0  0  0
   27.9989  -12.2161    0.0000 C   0  0  0  0  0  0  0  0  0  0  0  0
   25.2085  -13.0412    0.0000 C   0  0  0  0  0  0  0  0  0  0  0  0
   25.7836  -11.6424    0.0000 C   0  0  0  0  0  0  0  0  0  0  0  0
   25.7837  -13.6164    0.0000 C   0  0  0  0  0  0  0  0  0  0  0  0
   26.6033  -13.6164    0.0000 C   0  0  0  0  0  0  0  0  0  0  0  0
   27.1826  -13.0412    0.0000 C   0  0  0  0  0  0  0  0  0  0  0  0
   26.6033  -11.6423    0.0000 C   0  0  0  0  0  0  0  0  0  0  0  0
   22.5429  -12.0515    0.0000 C   0  0  0  0  0  0  0  0  0  0  0  0
   23.0298  -11.3928    0.0000 C   0  0  0  0  0  0  0  0  0  0  0  0
   23.0231  -12.7224    0.0000 C   0  0  0  0  0  0  0  0  0  0  0  0
   22.6188  -13.4330    0.0000 O   0  0  0  0  0  0  0  0  0  0  0  0
   21.7258  -12.0452    0.0000 C   0  0  0  0  0  0  0  0  0  0  0  0
   23.3918  -10.9381    0.0000 O   0  0  0  0  0  0  0  0  0  0  0  0
   23.8093  -12.4675    0.0000 C   0  0  0  0  0  0  0  0  0  0  0  0
   23.8094  -11.6479    0.0000 C   0  0  0  0  0  0  0  0  0  0  0  0
   24.3860  -11.0713    0.0000 C   0  0  0  0  0  0  0  0  0  0  0  0
   24.3861  -13.0442    0.0000 C   0  0  0  0  0  0  0  0  0  0  0  0
   25.7824  -12.4675    0.0000 C   0  0  0  0  0  0  0  0  0  0  0  0
   25.2057  -11.0712    0.0000 C   0  0  0  0  0  0  0  0  0  0  0  0
   22.5747  -10.9454    0.0000 C   0  0  0  0  0  0  0  0  0  0  0  0
   22.1597  -10.2414    0.0000 O   0  0  0  0  0  0  0  0  0  0  0  0
   22.1724  -11.6567    0.0000 C   0  0  0  0  0  0  0  0  0  0  0  0
   24.0732  -10.3163    0.0000 O   0  0  0  0  0  0  0  0  0  0  0  0
   25.5184  -10.3162    0.0000 C   0  0  0  0  0  0  0  0  0  0  0  0
   27.9371  -13.3550    0.0000 O   0  0  0  0  0  0  0  0  0  0  0  0
   25.4710  -14.3714    0.0000 O   0  0  0  0  0  0  0  0  0  0  0  0
   25.8829  -15.0774    0.0000 C   0  0  0  0  0  0  0  0  0  0  0  0
   25.4776  -15.7870    0.0000 C   0  0  0  0  0  0  0  0  0  0  0  0
   26.7000  -15.0736    0.0000 O   0  0  0  0  0  0  0  0  0  0  0  0
   21.8016  -13.4386    0.0000 C   0  0  0  0  0  0  0  0  0  0  0  0
   21.3978  -14.1491    0.0000 C   0  0  0  0  0  0  0  0  0  0  0  0
   21.3882  -12.7337    0.0000 O   0  0  0  0  0  0  0  0  0  0  0  0
   24.0748  -13.7998    0.0000 O   0  0  0  0  0  0  0  0  0  0  0  0
   24.0700  -14.6145    0.0000 C   0  0  0  0  0  0  0  0  0  0  0  0
   24.7753  -15.0273    0.0000 O   0  0  0  0  0  0  0  0  0  0  0  0
   23.3599  -15.0189    0.0000 C   0  0  0  0  0  0  0  0  0  0  0  0
   20.5805  -14.1496    0.0000 C   0  0  0  0  0  0  0  0  0  0  0  0
   20.1768  -14.8592    0.0000 C   0  0  0  0  0  0  0  0  0  0  0  0
   20.5902  -15.5651    0.0000 C   0  0  0  0  0  0  0  0  0  0  0  0
   21.4116  -15.5569    0.0000 C   0  0  0  0  0  0  0  0  0  0  0  0
   21.8116  -14.8467    0.0000 C   0  0  0  0  0  0  0  0  0  0  0  0
  2  1  1  0
  3  2  1  0
  4  6  1  0
  6  7  1  0
  7  8  1  0
  8  2  1  0
  2  9  1  0
  9  5  2  0
 17 11  1  0
 11 10  1  0
 10 12  1  0
 12 16  1  0
 12 13  1  1
 10 14  1  1
 17 15  1  1
 16 17  1  0
 17 18  1  0
 16 19  1  1
 19  4  1  0
  4 20  2  0
  5 21  1  0
 21 18  1  0
 15 22  1  0
 22 23  2  0
 22 24  1  0
 18 25  2  0
 21 26  1  1
  8 27  2  0
  6 28  1  1
 28 29  1  0
 29 30  1  0
 29 31  2  0
 13 32  1  0
 32 33  1  0
 32 34  2  0
 19 35  1  6
 35 36  1  0
 36 37  2  0
 36 38  1  0
 33 39  2  0
 39 40  1  0
 40 41  2  0
 41 42  1  0
 42 43  2  0
 43 33  1  0
M  END
>  <Curated_InChIs>  (59) 
InChI=1S/C33H40O10/c1-18-14-15-32(7,8)26(37)16-25(40-21(4)34)20(3)29(41-22(5)35)27-28(42-31(39)24-12-10-9-11-13-24)19(2)17-33(27,30(18)38)43-23(6)36/h9-15,18-19,25,27-29H,3,16-17H2,1-2,4-8H3

>  <threshold>  (59) 
5

>  <pchembl>  (59) 
4.88

>  <Classification>  (59) 
0

>  <source>  (59) 
chembl_28

>  <SMILES>  (59) 
C=C1[C@H](OC(C)=O)CC(=O)C(C)(C)/C=C/[C@H](C)C(=O)[C@@]2(OC(C)=O)C[C@H](C)[C@H](OC(=O)c3ccccc3)[C@@H]2[C@H]1OC(C)=O

>  <InChIKey>  (59) 
NMOHUZOZJPXREE-REVJNMIYSA-N

$$$$

     RDKit          2D

 27 28  0  0  0  0  0  0  0  0999 V2000
    4.5792   -4.9667    0.0000 C   0  0  0  0  0  0  0  0  0  0  0  0
    5.3000   -5.3792    0.0000 N   0  0  0  0  0  0  0  0  0  0  0  0
    6.0167   -4.9667    0.0000 C   0  0  0  0  0  0  0  0  0  0  0  0
    7.4500   -4.9667    0.0000 C   0  0  0  0  0  0  0  0  0  0  0  0
    6.7375   -5.3792    0.0000 C   0  0  0  0  0  0  0  0  0  0  0  0
    8.1667   -5.3792    0.0000 C   0  0  0  0  0  0  0  0  0  0  0  0
    3.8625   -5.3792    0.0000 O   0  0  0  0  0  0  0  0  0  0  0  0
    6.0167   -4.1292    0.0000 C   0  0  0  0  0  0  0  0  0  0  0  0
    4.5792   -4.1292    0.0000 O   0  0  0  0  0  0  0  0  0  0  0  0
    8.1667   -6.2042    0.0000 O   0  0  0  0  0  0  0  0  0  0  0  0
    3.1500   -4.9667    0.0000 C   0  0  0  0  0  0  0  0  0  0  0  0
    6.7375   -6.2042    0.0000 O   0  0  0  0  0  0  0  0  0  0  0  0
    6.7292   -3.7250    0.0000 C   0  0  0  0  0  0  0  0  0  0  0  0
    8.8875   -4.9667    0.0000 O   0  0  0  0  0  0  0  0  0  0  0  0
    5.3000   -6.2042    0.0000 C   0  0  0  0  0  0  0  0  0  0  0  0
    2.4292   -5.3792    0.0000 C   0  0  0  0  0  0  0  0  0  0  0  0
    7.4417   -4.1292    0.0000 C   0  0  0  0  0  0  0  0  0  0  0  0
    6.7292   -2.9042    0.0000 C   0  0  0  0  0  0  0  0  0  0  0  0
    9.6042   -5.3792    0.0000 C   0  0  0  0  0  0  0  0  0  0  0  0
    1.7125   -4.9667    0.0000 C   0  0  0  0  0  0  0  0  0  0  0  0
    2.4292   -6.2042    0.0000 C   0  0  0  0  0  0  0  0  0  0  0  0
    1.7125   -6.6167    0.0000 C   0  0  0  0  0  0  0  0  0  0  0  0
    8.1542   -3.7250    0.0000 C   0  0  0  0  0  0  0  0  0  0  0  0
    7.4417   -2.4875    0.0000 C   0  0  0  0  0  0  0  0  0  0  0  0
    1.0000   -5.3792    0.0000 C   0  0  0  0  0  0  0  0  0  0  0  0
    1.0000   -6.2042    0.0000 C   0  0  0  0  0  0  0  0  0  0  0  0
    8.1542   -2.9000    0.0000 C   0  0  0  0  0  0  0  0  0  0  0  0
  2  1  1  0
  3  2  1  0
  4  5  1  0
  5  3  1  0
  6  4  1  0
  7  1  1  0
  3  8  1  1
  9  1  2  0
 10  6  2  0
 11  7  1  0
  5 12  1  1
 13  8  1  0
 14  6  1  0
 15  2  1  0
 16 11  1  0
 17 13  2  0
 18 13  1  0
 19 14  1  0
 20 16  2  0
 21 16  1  0
 22 21  2  0
 23 17  1  0
 24 18  2  0
 25 20  1  0
 26 22  1  0
 27 24  1  0
 25 26  2  0
 27 23  2  0
M  END
>  <Curated_InChIs>  (60) 
InChI=1S/C21H25NO5/c1-22(21(25)27-15-17-11-7-4-8-12-17)18(19(23)14-20(24)26-2)13-16-9-5-3-6-10-16/h3-12,18-19,23H,13-15H2,1-2H3

>  <threshold>  (60) 
5

>  <pchembl>  (60) 
4.77

>  <Classification>  (60) 
0

>  <source>  (60) 
chembl_28

>  <SMILES>  (60) 
COC(=O)C[C@@H](O)[C@H](Cc1ccccc1)N(C)C(=O)OCc1ccccc1

>  <InChIKey>  (60) 
NTFJSFAGMHDILF-RBUKOAKNSA-N

$$$$

     RDKit          2D

 27 28  0  0  0  0  0  0  0  0999 V2000
    4.6500  -16.2654    0.0000 C   0  0  0  0  0  0  0  0  0  0  0  0
    4.6488  -17.0849    0.0000 C   0  0  0  0  0  0  0  0  0  0  0  0
    5.3569  -17.4939    0.0000 C   0  0  0  0  0  0  0  0  0  0  0  0
    6.0665  -17.0844    0.0000 C   0  0  0  0  0  0  0  0  0  0  0  0
    6.0637  -16.2618    0.0000 C   0  0  0  0  0  0  0  0  0  0  0  0
    5.3551  -15.8565    0.0000 C   0  0  0  0  0  0  0  0  0  0  0  0
    6.7699  -15.8505    0.0000 C   0  0  0  0  0  0  0  0  0  0  0  0
    7.4791  -16.2564    0.0000 C   0  0  0  0  0  0  0  0  0  0  0  0
    8.1853  -15.8452    0.0000 C   0  0  0  0  0  0  0  0  0  0  0  0
    8.8945  -16.2511    0.0000 C   0  0  0  0  0  0  0  0  0  0  0  0
    8.8945  -17.0672    0.0000 C   0  0  0  0  0  0  0  0  0  0  0  0
    9.6029  -17.4730    0.0000 C   0  0  0  0  0  0  0  0  0  0  0  0
   10.3101  -17.0617    0.0000 C   0  0  0  0  0  0  0  0  0  0  0  0
   10.3043  -16.2403    0.0000 C   0  0  0  0  0  0  0  0  0  0  0  0
    9.5954  -15.8381    0.0000 C   0  0  0  0  0  0  0  0  0  0  0  0
    6.7749  -17.4919    0.0000 O   0  0  0  0  0  0  0  0  0  0  0  0
    3.9408  -17.4929    0.0000 O   0  0  0  0  0  0  0  0  0  0  0  0
    3.9422  -15.8569    0.0000 C   0  0  0  0  0  0  0  0  0  0  0  0
    5.3526  -15.0393    0.0000 O   0  0  0  0  0  0  0  0  0  0  0  0
    6.7762  -18.3091    0.0000 C   0  0  0  0  0  0  0  0  0  0  0  0
    6.7668  -15.0333    0.0000 O   0  0  0  0  0  0  0  0  0  0  0  0
    3.9401  -18.3101    0.0000 C   0  0  0  0  0  0  0  0  0  0  0  0
    3.2346  -16.2657    0.0000 C   0  0  0  0  0  0  0  0  0  0  0  0
    2.5267  -15.8573    0.0000 C   0  0  0  0  0  0  0  0  0  0  0  0
    1.8191  -16.2660    0.0000 C   0  0  0  0  0  0  0  0  0  0  0  0
    2.5265  -15.0401    0.0000 C   0  0  0  0  0  0  0  0  0  0  0  0
   11.0198  -17.4667    0.0000 F   0  0  0  0  0  0  0  0  0  0  0  0
  1  2  2  0
  2  3  1  0
  3  4  2  0
  4  5  1  0
  5  6  2  0
  6  1  1  0
  5  7  1  0
  7  8  1  0
  8  9  2  0
  9 10  1  0
 10 11  2  0
 11 12  1  0
 12 13  2  0
 13 14  1  0
 14 15  2  0
 15 10  1  0
  4 16  1  0
  2 17  1  0
  1 18  1  0
  6 19  1  0
 16 20  1  0
  7 21  2  0
 17 22  1  0
 18 23  1  0
 23 24  2  3
 24 25  1  0
 24 26  1  0
 13 27  1  0
M  END
>  <Curated_InChIs>  (61) 
InChI=1S/C22H23FO4/c1-14(2)5-11-17-19(26-3)13-20(27-4)21(22(17)25)18(24)12-8-15-6-9-16(23)10-7-15/h5-10,12-13,25H,11H2,1-4H3

>  <threshold>  (61) 
5

>  <pchembl>  (61) 
4.75

>  <Classification>  (61) 
0

>  <source>  (61) 
chembl_28

>  <SMILES>  (61) 
COc1cc(OC)c(C(=O)/C=C/c2ccc(F)cc2)c(O)c1CC=C(C)C

>  <InChIKey>  (61) 
NUCFQJUPNPZMMN-XYOKQWHBSA-N

$$$$

     RDKit          2D

 28 32  0  0  0  0  0  0  0  0999 V2000
    3.9483  -17.1197    0.0000 C   0  0  0  0  0  0  0  0  0  0  0  0
    3.9472  -17.9392    0.0000 C   0  0  0  0  0  0  0  0  0  0  0  0
    4.6552  -18.3482    0.0000 C   0  0  0  0  0  0  0  0  0  0  0  0
    4.6535  -16.7108    0.0000 C   0  0  0  0  0  0  0  0  0  0  0  0
    5.3621  -17.1161    0.0000 C   0  0  0  0  0  0  0  0  0  0  0  0
    5.3623  -17.9393    0.0000 C   0  0  0  0  0  0  0  0  0  0  0  0
    6.1453  -18.1935    0.0000 N   0  0  0  0  0  0  0  0  0  0  0  0
    6.1449  -16.8616    0.0000 C   0  0  0  0  0  0  0  0  0  0  0  0
    6.6291  -17.5287    0.0000 C   0  0  0  0  0  0  0  0  0  0  0  0
    7.4444  -17.4434    0.0000 C   0  0  0  0  0  0  0  0  0  0  0  0
    7.7818  -16.6920    0.0000 N   0  0  0  0  0  0  0  0  0  0  0  0
    7.2977  -16.0249    0.0000 C   0  0  0  0  0  0  0  0  0  0  0  0
    6.4760  -16.1092    0.0000 C   0  0  0  0  0  0  0  0  0  0  0  0
    8.5947  -16.6081    0.0000 C   0  0  0  0  0  0  0  0  0  0  0  0
    9.0738  -17.2701    0.0000 O   0  0  0  0  0  0  0  0  0  0  0  0
    8.9285  -15.8622    0.0000 C   0  0  0  0  0  0  0  0  0  0  0  0
    9.7416  -15.7823    0.0000 C   0  0  0  0  0  0  0  0  0  0  0  0
   10.0754  -15.0373    0.0000 C   0  0  0  0  0  0  0  0  0  0  0  0
    9.5961  -14.3743    0.0000 C   0  0  0  0  0  0  0  0  0  0  0  0
    8.7793  -14.4612    0.0000 C   0  0  0  0  0  0  0  0  0  0  0  0
    8.4493  -15.2065    0.0000 C   0  0  0  0  0  0  0  0  0  0  0  0
    7.9243  -18.1020    0.0000 C   0  0  0  0  0  0  0  0  0  0  0  0
    7.5889  -18.8484    0.0000 C   0  0  0  0  0  0  0  0  0  0  0  0
    8.0672  -19.5100    0.0000 C   0  0  0  0  0  0  0  0  0  0  0  0
    8.8810  -19.4265    0.0000 C   0  0  0  0  0  0  0  0  0  0  0  0
    9.2141  -18.6756    0.0000 C   0  0  0  0  0  0  0  0  0  0  0  0
    8.7337  -18.0172    0.0000 C   0  0  0  0  0  0  0  0  0  0  0  0
    7.7331  -20.2558    0.0000 Cl  0  0  0  0  0  0  0  0  0  0  0  0
  1  2  2  0
  2  3  1  0
  3  6  2  0
  5  4  2  0
  4  1  1  0
  5  6  1  0
  6  7  1  0
  7  9  1  0
  8  5  1  0
  8  9  2  0
  8 13  1  0
  9 10  1  0
 10 11  1  0
 11 12  1  0
 12 13  1  0
 11 14  1  0
 14 15  2  0
 14 16  1  0
 16 17  2  0
 17 18  1  0
 18 19  2  0
 19 20  1  0
 20 21  2  0
 21 16  1  0
 22 23  2  0
 23 24  1  0
 24 25  2  0
 25 26  1  0
 26 27  2  0
 27 22  1  0
 10 22  1  0
 24 28  1  0
M  END
>  <Curated_InChIs>  (62) 
InChI=1S/C24H19ClN2O/c25-18-10-6-9-17(15-18)23-22-20(19-11-4-5-12-21(19)26-22)13-14-27(23)24(28)16-7-2-1-3-8-16/h1-12,15,23,26H,13-14H2

>  <threshold>  (62) 
5

>  <pchembl>  (62) 
4.65

>  <Classification>  (62) 
0

>  <source>  (62) 
chembl_28

>  <SMILES>  (62) 
O=C(c1ccccc1)N1CCc2c([nH]c3ccccc23)C1c1cccc(Cl)c1

>  <InChIKey>  (62) 
NVUJCJKAAMFJDS-UHFFFAOYSA-N

$$$$

     RDKit          2D

 28 29  0  0  0  0  0  0  0  0999 V2000
   40.0657   -2.3153    0.0000 C   0  0  0  0  0  0  0  0  0  0  0  0
   40.0646   -3.1349    0.0000 C   0  0  0  0  0  0  0  0  0  0  0  0
   40.7726   -3.5438    0.0000 C   0  0  0  0  0  0  0  0  0  0  0  0
   41.4823   -3.1344    0.0000 C   0  0  0  0  0  0  0  0  0  0  0  0
   41.4794   -2.3117    0.0000 C   0  0  0  0  0  0  0  0  0  0  0  0
   40.7708   -1.9065    0.0000 C   0  0  0  0  0  0  0  0  0  0  0  0
   42.1856   -1.9005    0.0000 C   0  0  0  0  0  0  0  0  0  0  0  0
   42.8949   -2.3064    0.0000 C   0  0  0  0  0  0  0  0  0  0  0  0
   43.6010   -1.8951    0.0000 C   0  0  0  0  0  0  0  0  0  0  0  0
   44.3103   -2.3011    0.0000 C   0  0  0  0  0  0  0  0  0  0  0  0
   44.3102   -3.1171    0.0000 C   0  0  0  0  0  0  0  0  0  0  0  0
   45.0187   -3.5230    0.0000 C   0  0  0  0  0  0  0  0  0  0  0  0
   45.7258   -3.1117    0.0000 C   0  0  0  0  0  0  0  0  0  0  0  0
   45.7201   -2.2903    0.0000 C   0  0  0  0  0  0  0  0  0  0  0  0
   45.0111   -1.8881    0.0000 C   0  0  0  0  0  0  0  0  0  0  0  0
   42.1906   -3.5419    0.0000 O   0  0  0  0  0  0  0  0  0  0  0  0
   39.3565   -3.5429    0.0000 O   0  0  0  0  0  0  0  0  0  0  0  0
   39.3579   -1.9069    0.0000 C   0  0  0  0  0  0  0  0  0  0  0  0
   40.7684   -1.0893    0.0000 O   0  0  0  0  0  0  0  0  0  0  0  0
   42.1919   -4.3591    0.0000 C   0  0  0  0  0  0  0  0  0  0  0  0
   42.1825   -1.0833    0.0000 O   0  0  0  0  0  0  0  0  0  0  0  0
   39.3559   -4.3601    0.0000 C   0  0  0  0  0  0  0  0  0  0  0  0
   38.6503   -2.3157    0.0000 C   0  0  0  0  0  0  0  0  0  0  0  0
   37.9425   -1.9072    0.0000 C   0  0  0  0  0  0  0  0  0  0  0  0
   37.2349   -2.3160    0.0000 C   0  0  0  0  0  0  0  0  0  0  0  0
   37.9423   -1.0901    0.0000 C   0  0  0  0  0  0  0  0  0  0  0  0
   46.4356   -3.5166    0.0000 O   0  0  0  0  0  0  0  0  0  0  0  0
   46.4397   -4.3338    0.0000 C   0  0  0  0  0  0  0  0  0  0  0  0
  1  2  2  0
  2  3  1  0
  3  4  2  0
  4  5  1  0
  5  6  2  0
  6  1  1  0
  5  7  1  0
  7  8  1  0
  8  9  2  0
  9 10  1  0
 10 11  2  0
 11 12  1  0
 12 13  2  0
 13 14  1  0
 14 15  2  0
 15 10  1  0
  4 16  1  0
  2 17  1  0
  1 18  1  0
  6 19  1  0
 16 20  1  0
  7 21  2  0
 17 22  1  0
 18 23  1  0
 23 24  2  3
 24 25  1  0
 24 26  1  0
 13 27  1  0
 27 28  1  0
M  END
>  <Curated_InChIs>  (63) 
InChI=1S/C23H26O5/c1-15(2)6-12-18-20(27-4)14-21(28-5)22(23(18)25)19(24)13-9-16-7-10-17(26-3)11-8-16/h6-11,13-14,25H,12H2,1-5H3

>  <threshold>  (63) 
5

>  <pchembl>  (63) 
4.68

>  <Classification>  (63) 
0

>  <source>  (63) 
chembl_28

>  <SMILES>  (63) 
COc1ccc(/C=C/C(=O)c2c(OC)cc(OC)c(CC=C(C)C)c2O)cc1

>  <InChIKey>  (63) 
NWEANQPEFZILBL-UKTHLTGXSA-N

$$$$

     RDKit          2D

 28 32  0  0  0  0  0  0  0  0999 V2000
   29.8096   -2.3979    0.0000 C   0  0  0  0  0  0  0  0  0  0  0  0
   29.8084   -3.2174    0.0000 C   0  0  0  0  0  0  0  0  0  0  0  0
   30.5165   -3.6264    0.0000 C   0  0  0  0  0  0  0  0  0  0  0  0
   30.5147   -1.9890    0.0000 C   0  0  0  0  0  0  0  0  0  0  0  0
   31.2233   -2.3943    0.0000 C   0  0  0  0  0  0  0  0  0  0  0  0
   31.2235   -3.2175    0.0000 C   0  0  0  0  0  0  0  0  0  0  0  0
   32.0065   -3.4716    0.0000 N   0  0  0  0  0  0  0  0  0  0  0  0
   32.0061   -2.1397    0.0000 C   0  0  0  0  0  0  0  0  0  0  0  0
   32.4903   -2.8068    0.0000 C   0  0  0  0  0  0  0  0  0  0  0  0
   33.3056   -2.7216    0.0000 C   0  0  0  0  0  0  0  0  0  0  0  0
   33.6431   -1.9702    0.0000 N   0  0  0  0  0  0  0  0  0  0  0  0
   33.1589   -1.3031    0.0000 C   0  0  0  0  0  0  0  0  0  0  0  0
   32.3372   -1.3873    0.0000 C   0  0  0  0  0  0  0  0  0  0  0  0
   34.4559   -1.8863    0.0000 C   0  0  0  0  0  0  0  0  0  0  0  0
   34.9350   -2.5483    0.0000 O   0  0  0  0  0  0  0  0  0  0  0  0
   34.7897   -1.1404    0.0000 C   0  0  0  0  0  0  0  0  0  0  0  0
   35.6028   -1.0605    0.0000 C   0  0  0  0  0  0  0  0  0  0  0  0
   35.9366   -0.3154    0.0000 C   0  0  0  0  0  0  0  0  0  0  0  0
   35.4574    0.3541    0.0000 C   0  0  0  0  0  0  0  0  0  0  0  0
   34.6406    0.2677    0.0000 C   0  0  0  0  0  0  0  0  0  0  0  0
   34.3105   -0.4847    0.0000 C   0  0  0  0  0  0  0  0  0  0  0  0
   33.7855   -3.3802    0.0000 C   0  0  0  0  0  0  0  0  0  0  0  0
   33.4501   -4.1266    0.0000 C   0  0  0  0  0  0  0  0  0  0  0  0
   33.9284   -4.7882    0.0000 C   0  0  0  0  0  0  0  0  0  0  0  0
   34.7422   -4.7047    0.0000 C   0  0  0  0  0  0  0  0  0  0  0  0
   35.0753   -3.9538    0.0000 C   0  0  0  0  0  0  0  0  0  0  0  0
   34.5949   -3.2953    0.0000 C   0  0  0  0  0  0  0  0  0  0  0  0
   32.6371   -4.2097    0.0000 F   0  0  0  0  0  0  0  0  0  0  0  0
  1  2  2  0
  2  3  1  0
  3  6  2  0
  5  4  2  0
  4  1  1  0
  5  6  1  0
  6  7  1  0
  7  9  1  0
  8  5  1  0
  8  9  2  0
  8 13  1  0
  9 10  1  0
 10 11  1  0
 11 12  1  0
 12 13  1  0
 11 14  1  0
 14 15  2  0
 14 16  1  0
 16 17  2  0
 17 18  1  0
 18 19  2  0
 19 20  1  0
 20 21  2  0
 21 16  1  0
 22 23  2  0
 23 24  1  0
 24 25  2  0
 25 26  1  0
 26 27  2  0
 27 22  1  0
 10 22  1  0
 23 28  1  0
M  END
>  <Curated_InChIs>  (64) 
InChI=1S/C24H19FN2O/c25-20-12-6-4-11-19(20)23-22-18(17-10-5-7-13-21(17)26-22)14-15-27(23)24(28)16-8-2-1-3-9-16/h1-13,23,26H,14-15H2

>  <threshold>  (64) 
5

>  <pchembl>  (64) 
4.95

>  <Classification>  (64) 
0

>  <source>  (64) 
chembl_28

>  <SMILES>  (64) 
O=C(c1ccccc1)N1CCc2c([nH]c3ccccc23)C1c1ccccc1F

>  <InChIKey>  (64) 
OQNGHEVWUBCJMX-UHFFFAOYSA-N

$$$$

     RDKit          2D

 40 44  0  0  0  0  0  0  0  0999 V2000
    3.1544   -7.4094    0.0000 C   0  0  0  0  0  0  0  0  0  0  0  0
    2.9122   -6.2341    0.0000 C   0  0  0  0  0  0  0  0  0  0  0  0
    1.7732   -5.8565    0.0000 C   0  0  0  0  0  0  0  0  0  0  0  0
    4.0312   -5.2378    0.0000 C   0  0  0  0  0  0  0  0  0  0  0  0
    3.8933   -3.7570    0.0000 C   0  0  0  0  0  0  0  0  0  0  0  0
    2.5951   -3.0039    0.0000 C   0  0  0  0  0  0  0  0  0  0  0  0
    1.5548   -3.6021    0.0000 O   0  0  0  0  0  0  0  0  0  0  0  0
    2.5973   -1.5031    0.0000 N   0  0  0  0  0  0  0  0  0  0  0  0
    1.2990   -0.7500    0.0000 C   0  0  0  0  0  0  0  0  0  0  0  0
    1.2990    0.7500    0.0000 C   0  0  0  0  0  0  0  0  0  0  0  0
    0.0000    1.5000    0.0000 C   0  0  0  0  0  0  0  0  0  0  0  0
   -1.2990    0.7500    0.0000 C   0  0  0  0  0  0  0  0  0  0  0  0
   -1.2990   -0.7500    0.0000 C   0  0  0  0  0  0  0  0  0  0  0  0
    0.0000   -1.5000    0.0000 C   0  0  0  0  0  0  0  0  0  0  0  0
    5.2447   -3.1359    0.0000 C   0  0  0  0  0  0  0  0  0  0  0  0
    5.5480   -1.6662    0.0000 C   0  0  0  0  0  0  0  0  0  0  0  0
    4.5130   -0.5877    0.0000 C   0  0  0  0  0  0  0  0  0  0  0  0
    4.9319    0.8526    0.0000 C   0  0  0  0  0  0  0  0  0  0  0  0
    6.3887    1.2101    0.0000 C   0  0  0  0  0  0  0  0  0  0  0  0
    7.4266    0.1272    0.0000 C   0  0  0  0  0  0  0  0  0  0  0  0
    7.0078   -1.3132    0.0000 C   0  0  0  0  0  0  0  0  0  0  0  0
    6.2484   -4.2507    0.0000 C   0  0  0  0  0  0  0  0  0  0  0  0
    7.7410   -4.0938    0.0000 C   0  0  0  0  0  0  0  0  0  0  0  0
    8.4493   -2.7772    0.0000 C   0  0  0  0  0  0  0  0  0  0  0  0
    9.9487   -2.7331    0.0000 C   0  0  0  0  0  0  0  0  0  0  0  0
   10.7365   -4.0096    0.0000 C   0  0  0  0  0  0  0  0  0  0  0  0
   11.9360   -3.9743    0.0000 F   0  0  0  0  0  0  0  0  0  0  0  0
   10.0250   -5.3301    0.0000 C   0  0  0  0  0  0  0  0  0  0  0  0
    8.5257   -5.3742    0.0000 C   0  0  0  0  0  0  0  0  0  0  0  0
    5.4984   -5.5497    0.0000 N   0  0  0  0  0  0  0  0  0  0  0  0
    6.1050   -6.9197    0.0000 C   0  0  0  0  0  0  0  0  0  0  0  0
    5.2210   -8.1326    0.0000 C   0  0  0  0  0  0  0  0  0  0  0  0
    5.8286   -9.5049    0.0000 C   0  0  0  0  0  0  0  0  0  0  0  0
    4.9470  -10.7185    0.0000 C   0  0  0  0  0  0  0  0  0  0  0  0
    5.5570  -12.0889    0.0000 C   0  0  0  0  0  0  0  0  0  0  0  0
    4.8516  -13.0596    0.0000 O   0  0  0  0  0  0  0  0  0  0  0  0
    7.0488  -12.2457    0.0000 C   0  0  0  0  0  0  0  0  0  0  0  0
    7.9305  -11.0322    0.0000 C   0  0  0  0  0  0  0  0  0  0  0  0
    9.1239  -11.1577    0.0000 O   0  0  0  0  0  0  0  0  0  0  0  0
    7.3205   -9.6619    0.0000 O   0  0  0  0  0  0  0  0  0  0  0  0
  1  2  1  0
  2  3  1  0
  2  4  1  0
  4  5  2  0
  5  6  1  0
  6  7  2  0
  6  8  1  0
  8  9  1  0
  9 10  2  0
 10 11  1  0
 11 12  2  0
 12 13  1  0
 13 14  2  0
 14  9  1  0
  5 15  1  0
 15 16  1  0
 16 17  2  0
 17 18  1  0
 18 19  2  0
 19 20  1  0
 20 21  2  0
 21 16  1  0
 15 22  2  0
 22 23  1  0
 23 24  2  0
 24 25  1  0
 25 26  2  0
 26 27  1  0
 26 28  1  0
 28 29  2  0
 29 23  1  0
 22 30  1  0
 30  4  1  0
 30 31  1  0
 31 32  1  0
 33 32  1  1
 33 34  1  0
 34 35  1  0
 35 36  1  6
 35 37  1  0
 37 38  1  0
 38 39  2  0
 38 40  1  0
 40 33  1  0
M  END
>  <Curated_InChIs>  (65) 
InChI=1S/C33H33FN2O4/c1-21(2)31-30(33(39)35-25-11-7-4-8-12-25)29(22-9-5-3-6-10-22)32(23-13-15-24(34)16-14-23)36(31)18-17-27-19-26(37)20-28(38)40-27/h3-16,21,26-27,37H,17-20H2,1-2H3,(H,35,39)

>  <threshold>  (65) 
5

>  <pchembl>  (65) 
4.85

>  <Classification>  (65) 
0

>  <source>  (65) 
chembl_28

>  <SMILES>  (65) 
CC(C)c1c(C(=O)Nc2ccccc2)c(-c2ccccc2)c(-c2ccc(F)cc2)n1CC[C@@H]1C[C@@H](O)CC(=O)O1

>  <InChIKey>  (65) 
OUCSEDFVYPBLLF-KAYWLYCHSA-N

$$$$

     RDKit          2D

 29 30  0  0  0  0  0  0  0  0999 V2000
    6.1417   -6.5250    0.0000 N   0  0  0  0  0  0  0  0  0  0  0  0
    5.2667   -6.4875    0.0000 C   0  0  0  0  0  0  0  0  0  0  0  0
    3.7875   -5.8417    0.0000 O   0  0  0  0  0  0  0  0  0  0  0  0
    3.0750   -6.5625    0.0000 C   0  0  0  0  0  0  0  0  0  0  0  0
    4.6125   -5.8417    0.0000 C   0  0  0  0  0  0  0  0  0  0  0  0
    6.1292   -8.2500    0.0000 C   0  0  0  0  0  0  0  0  0  0  0  0
    2.0875   -6.8167    0.0000 C   0  0  0  0  0  0  0  0  0  0  0  0
    3.6125   -9.0542    0.0000 C   0  0  0  0  0  0  0  0  0  0  0  0
    3.0625   -8.0875    0.0000 O   0  0  0  0  0  0  0  0  0  0  0  0
    4.5375   -9.0625    0.0000 C   0  0  0  0  0  0  0  0  0  0  0  0
    4.9750   -8.2500    0.0000 C   0  0  0  0  0  0  0  0  0  0  0  0
    2.0875   -7.8292    0.0000 C   0  0  0  0  0  0  0  0  0  0  0  0
    4.6750   -7.0792    0.0000 O   0  0  0  0  0  0  0  0  0  0  0  0
    3.9417   -7.0625    0.0000 O   0  0  0  0  0  0  0  0  0  0  0  0
    6.7125   -8.8292    0.0000 C   0  0  0  0  0  0  0  0  0  0  0  0
    3.1875   -9.7625    0.0000 O   0  0  0  0  0  0  0  0  0  0  0  0
    4.8375   -5.0500    0.0000 C   0  0  0  0  0  0  0  0  0  0  0  0
    6.8000   -6.0167    0.0000 C   0  0  0  0  0  0  0  0  0  0  0  0
    4.2542   -7.8375    0.0000 O   0  0  0  0  0  0  0  0  0  0  0  0
    7.5125   -8.6167    0.0000 C   0  0  0  0  0  0  0  0  0  0  0  0
    1.2875   -6.1917    0.0000 C   0  0  0  0  0  0  0  0  0  0  0  0
    1.2125   -8.3375    0.0000 C   0  0  0  0  0  0  0  0  0  0  0  0
    5.6375   -4.8500    0.0000 C   0  0  0  0  0  0  0  0  0  0  0  0
    4.2667   -4.4417    0.0000 C   0  0  0  0  0  0  0  0  0  0  0  0
    7.7167   -7.8250    0.0000 C   0  0  0  0  0  0  0  0  0  0  0  0
    8.0875   -9.2042    0.0000 C   0  0  0  0  0  0  0  0  0  0  0  0
    8.8875   -8.9917    0.0000 C   0  0  0  0  0  0  0  0  0  0  0  0
    8.5125   -7.6125    0.0000 C   0  0  0  0  0  0  0  0  0  0  0  0
    9.1000   -8.2000    0.0000 C   0  0  0  0  0  0  0  0  0  0  0  0
  2  1  1  0
  3  5  1  0
  4  3  1  0
  5  2  1  0
  6  1  1  0
  7  4  1  0
  8 10  1  0
  9  8  1  0
 10 11  1  0
 11  6  1  0
 12  9  1  0
 13  2  2  0
 14  4  2  0
  6 15  1  1
 16  8  2  0
  5 17  1  1
 18  1  1  0
 11 19  1  1
 20 15  1  0
  7 21  1  6
 12 22  1  6
 23 17  1  0
 24 17  1  0
 25 20  2  0
 26 20  1  0
 27 26  2  0
 28 25  1  0
 29 27  1  0
 29 28  2  0
 12  7  1  0
M  END
>  <Curated_InChIs>  (66) 
InChI=1S/C22H31NO6/c1-13(2)20-21(26)23(5)17(11-16-9-7-6-8-10-16)18(24)12-19(25)28-15(4)14(3)22(27)29-20/h6-10,13-15,17-18,20,24H,11-12H2,1-5H3

>  <threshold>  (66) 
5

>  <pchembl>  (66) 
4.82

>  <Classification>  (66) 
0

>  <source>  (66) 
chembl_28

>  <SMILES>  (66) 
CC(C)[C@@H]1OC(=O)[C@@H](C)[C@@H](C)OC(=O)C[C@@H](O)[C@H](Cc2ccccc2)N(C)C1=O

>  <InChIKey>  (66) 
PBDWEPPZSHZNKO-HOXSDCPRSA-N

$$$$

     RDKit          2D

 42 48  0  0  0  0  0  0  0  0999 V2000
    7.5134   -4.2723    0.0000 C   0  0  0  0  0  0  0  0  0  0  0  0
    6.7989   -4.6848    0.0000 C   0  0  0  0  0  0  0  0  0  0  0  0
    6.7989   -5.5098    0.0000 C   0  0  0  0  0  0  0  0  0  0  0  0
    7.5134   -5.9223    0.0000 C   0  0  0  0  0  0  0  0  0  0  0  0
    8.2279   -5.5098    0.0000 C   0  0  0  0  0  0  0  0  0  0  0  0
    8.2279   -4.6848    0.0000 C   0  0  0  0  0  0  0  0  0  0  0  0
    7.5134   -3.4473    0.0000 C   0  0  0  0  0  0  0  0  0  0  0  0
    8.2278   -3.0348    0.0000 C   0  0  0  0  0  0  0  0  0  0  0  0
    8.9423   -3.4473    0.0000 C   0  0  0  0  0  0  0  0  0  0  0  0
    8.9423   -4.2723    0.0000 C   0  0  0  0  0  0  0  0  0  0  0  0
    8.2278   -2.2098    0.0000 N   0  0  0  0  0  0  0  0  0  0  0  0
    7.5133   -1.7973    0.0000 C   0  0  0  0  0  0  0  0  0  0  0  0
    6.7989   -2.2098    0.0000 C   0  0  0  0  0  0  0  0  0  0  0  0
    6.7989   -3.0348    0.0000 C   0  0  0  0  0  0  0  0  0  0  0  0
    9.1610   -5.6663    0.0000 N   0  0  0  0  0  0  0  0  0  0  0  0
    9.5554   -4.8243    0.0000 C   0  0  0  0  0  0  0  0  0  0  0  0
    8.9423   -1.7972    0.0000 C   0  0  0  0  0  0  0  0  0  0  0  0
    6.0844   -1.7973    0.0000 C   0  0  0  0  0  0  0  0  0  0  0  0
    5.3699   -2.2099    0.0000 O   0  0  0  0  0  0  0  0  0  0  0  0
    6.0843   -0.9723    0.0000 N   0  0  0  0  0  0  0  0  0  0  0  0
    5.3699   -0.5598    0.0000 C   0  0  0  0  0  0  0  0  0  0  0  0
    5.8891    0.0813    0.0000 C   0  0  0  0  0  0  0  0  0  0  0  0
    5.4397    0.7732    0.0000 N   0  0  0  0  0  0  0  0  0  0  0  0
    4.6429    0.5597    0.0000 C   0  0  0  0  0  0  0  0  0  0  0  0
    4.5997   -0.2642    0.0000 O   0  0  0  0  0  0  0  0  0  0  0  0
    4.0595    1.1430    0.0000 C   0  0  0  0  0  0  0  0  0  0  0  0
    4.2730    1.9399    0.0000 N   0  0  0  0  0  0  0  0  0  0  0  0
    5.0699    2.1535    0.0000 C   0  0  0  0  0  0  0  0  0  0  0  0
    5.6533    1.5701    0.0000 C   0  0  0  0  0  0  0  0  0  0  0  0
    3.2357    1.0998    0.0000 C   0  0  0  0  0  0  0  0  0  0  0  0
    2.9400    1.8700    0.0000 C   0  0  0  0  0  0  0  0  0  0  0  0
    3.5810    2.3892    0.0000 C   0  0  0  0  0  0  0  0  0  0  0  0
    3.9284    0.1472    0.0000 O   0  0  0  0  0  0  0  0  0  0  0  0
    4.7865   -1.1432    0.0000 C   0  0  0  0  0  0  0  0  0  0  0  0
    3.9896   -0.9297    0.0000 C   0  0  0  0  0  0  0  0  0  0  0  0
    4.2032   -1.7266    0.0000 C   0  0  0  0  0  0  0  0  0  0  0  0
    6.7129    0.0382    0.0000 O   0  0  0  0  0  0  0  0  0  0  0  0
    6.4501    1.7836    0.0000 C   0  0  0  0  0  0  0  0  0  0  0  0
    6.8626    2.4981    0.0000 C   0  0  0  0  0  0  0  0  0  0  0  0
    7.6876    2.4981    0.0000 C   0  0  0  0  0  0  0  0  0  0  0  0
    6.4501    3.2126    0.0000 C   0  0  0  0  0  0  0  0  0  0  0  0
    5.2834    2.9504    0.0000 O   0  0  0  0  0  0  0  0  0  0  0  0
  1  2  2  0
  2  3  1  0
  3  4  2  0
  4  5  1  0
  5  6  2  0
  1  7  1  0
  1  6  1  0
  8  9  1  6
  9 10  1  0
  8 11  1  0
  7  8  1  0
  7 14  1  1
 11 12  1  0
 12 13  1  0
 13 14  1  0
 10 16  2  0
 10  6  1  0
 15 16  1  0
  5 15  1  0
 11 17  1  0
 13 18  1  1
 18 19  2  0
 18 20  1  0
 21 20  1  6
 21 22  1  0
 21 25  1  0
 22 23  1  0
 24 25  1  0
 29 23  1  0
 23 24  1  0
 24 26  1  0
 27 28  1  0
 28 29  1  0
 26 30  1  6
 27 26  1  0
 27 32  1  0
 30 31  1  0
 31 32  1  0
 24 33  1  6
 21 34  1  0
 34 35  1  0
 34 36  1  0
 22 37  2  0
 29 38  1  6
 38 39  1  0
 39 40  1  0
 39 41  1  0
 28 42  2  0
M  END
>  <Curated_InChIs>  (67) 
InChI=1S/C32H43N5O5/c1-17(2)12-25-29(39)36-11-7-10-26(36)32(41)37(25)30(40)31(42-32,18(3)4)34-28(38)20-13-22-21-8-6-9-23-27(21)19(15-33-23)14-24(22)35(5)16-20/h6,8-9,15,17-18,20,22,24-26,33,41H,7,10-14,16H2,1-5H3,(H,34,38)

>  <threshold>  (67) 
5

>  <pchembl>  (67) 
4.7

>  <Classification>  (67) 
0

>  <source>  (67) 
chembl_28

>  <SMILES>  (67) 
CC(C)C[C@H]1C(=O)N2CCC[C@H]2[C@]2(O)O[C@](NC(=O)[C@@H]3C[C@@H]4c5cccc6[nH]cc(c56)C[C@H]4N(C)C3)(C(C)C)C(=O)N12

>  <InChIKey>  (67) 
PBUNVLRHZGSROC-VTIMJTGVSA-N

$$$$

     RDKit          2D

 43 45  0  0  0  0  0  0  0  0999 V2000
   18.6881  -11.3870    0.0000 C   0  0  0  0  0  0  0  0  0  0  0  0
   18.2836  -12.0969    0.0000 C   0  0  0  0  0  0  0  0  0  0  0  0
   19.1006  -12.0922    0.0000 C   0  0  0  0  0  0  0  0  0  0  0  0
   16.3101  -12.9174    0.0000 C   0  0  0  0  0  0  0  0  0  0  0  0
   16.8853  -11.5185    0.0000 C   0  0  0  0  0  0  0  0  0  0  0  0
   16.8854  -13.4926    0.0000 C   0  0  0  0  0  0  0  0  0  0  0  0
   17.7050  -13.4926    0.0000 C   0  0  0  0  0  0  0  0  0  0  0  0
   18.2843  -12.9174    0.0000 C   0  0  0  0  0  0  0  0  0  0  0  0
   17.7050  -11.5184    0.0000 C   0  0  0  0  0  0  0  0  0  0  0  0
   13.6446  -11.9277    0.0000 C   0  0  0  0  0  0  0  0  0  0  0  0
   14.1315  -11.2690    0.0000 C   0  0  0  0  0  0  0  0  0  0  0  0
   14.1247  -12.5985    0.0000 C   0  0  0  0  0  0  0  0  0  0  0  0
   13.7205  -13.3092    0.0000 O   0  0  0  0  0  0  0  0  0  0  0  0
   12.8275  -11.9214    0.0000 C   0  0  0  0  0  0  0  0  0  0  0  0
   14.4935  -10.8143    0.0000 O   0  0  0  0  0  0  0  0  0  0  0  0
   14.9110  -12.3437    0.0000 C   0  0  0  0  0  0  0  0  0  0  0  0
   14.9111  -11.5240    0.0000 C   0  0  0  0  0  0  0  0  0  0  0  0
   15.4877  -10.9475    0.0000 C   0  0  0  0  0  0  0  0  0  0  0  0
   15.4878  -12.9204    0.0000 C   0  0  0  0  0  0  0  0  0  0  0  0
   16.8841  -12.3437    0.0000 C   0  0  0  0  0  0  0  0  0  0  0  0
   16.3074  -10.9473    0.0000 C   0  0  0  0  0  0  0  0  0  0  0  0
   13.6763  -10.8216    0.0000 C   0  0  0  0  0  0  0  0  0  0  0  0
   13.2614  -10.1176    0.0000 O   0  0  0  0  0  0  0  0  0  0  0  0
   13.2741  -11.5329    0.0000 C   0  0  0  0  0  0  0  0  0  0  0  0
   15.1749  -10.1925    0.0000 O   0  0  0  0  0  0  0  0  0  0  0  0
   16.6201  -10.1923    0.0000 C   0  0  0  0  0  0  0  0  0  0  0  0
   19.0388  -13.2312    0.0000 O   0  0  0  0  0  0  0  0  0  0  0  0
   16.5727  -14.2476    0.0000 O   0  0  0  0  0  0  0  0  0  0  0  0
   16.9846  -14.9536    0.0000 C   0  0  0  0  0  0  0  0  0  0  0  0
   16.5793  -15.6632    0.0000 C   0  0  0  0  0  0  0  0  0  0  0  0
   17.8017  -14.9498    0.0000 O   0  0  0  0  0  0  0  0  0  0  0  0
   12.9033  -13.3148    0.0000 C   0  0  0  0  0  0  0  0  0  0  0  0
   12.4995  -14.0252    0.0000 C   0  0  0  0  0  0  0  0  0  0  0  0
   12.4899  -12.6099    0.0000 O   0  0  0  0  0  0  0  0  0  0  0  0
   15.1765  -13.6760    0.0000 O   0  0  0  0  0  0  0  0  0  0  0  0
   15.1717  -14.4907    0.0000 C   0  0  0  0  0  0  0  0  0  0  0  0
   15.8770  -14.9035    0.0000 O   0  0  0  0  0  0  0  0  0  0  0  0
   14.4616  -14.8951    0.0000 C   0  0  0  0  0  0  0  0  0  0  0  0
   13.7602  -14.4817    0.0000 C   0  0  0  0  0  0  0  0  0  0  0  0
   13.0505  -14.8854    0.0000 C   0  0  0  0  0  0  0  0  0  0  0  0
   13.0452  -15.7034    0.0000 C   0  0  0  0  0  0  0  0  0  0  0  0
   13.7555  -16.1161    0.0000 C   0  0  0  0  0  0  0  0  0  0  0  0
   14.4622  -15.7100    0.0000 C   0  0  0  0  0  0  0  0  0  0  0  0
  2  1  1  0
  3  2  1  0
  4  6  1  0
  6  7  1  0
  7  8  1  0
  8  2  1  0
  2  9  1  0
  9  5  2  0
 17 11  1  0
 11 10  1  0
 10 12  1  0
 12 16  1  0
 12 13  1  1
 10 14  1  1
 17 15  1  1
 16 17  1  0
 17 18  1  0
 16 19  1  1
 19  4  1  0
  4 20  2  0
  5 21  1  0
 21 18  1  0
 15 22  1  0
 22 23  2  0
 22 24  1  0
 18 25  2  0
 21 26  1  1
  8 27  2  0
  6 28  1  1
 28 29  1  0
 29 30  1  0
 29 31  2  0
 13 32  1  0
 32 33  1  0
 32 34  2  0
 19 35  1  6
 35 36  1  0
 36 37  2  0
 36 38  1  0
 38 39  2  0
 39 40  1  0
 40 41  2  0
 41 42  1  0
 42 43  2  0
 43 38  1  0
M  END
>  <Curated_InChIs>  (68) 
InChI=1S/C33H40O10/c1-18-14-15-32(7,8)26(37)16-25(40-21(4)34)20(3)29(42-31(39)24-12-10-9-11-13-24)27-28(41-22(5)35)19(2)17-33(27,30(18)38)43-23(6)36/h9-15,18-19,25,27-29H,3,16-17H2,1-2,4-8H3

>  <threshold>  (68) 
5

>  <pchembl>  (68) 
4.85

>  <Classification>  (68) 
0

>  <source>  (68) 
chembl_28

>  <SMILES>  (68) 
C=C1[C@H](OC(C)=O)CC(=O)C(C)(C)/C=C/[C@H](C)C(=O)[C@@]2(OC(C)=O)C[C@H](C)[C@H](OC(C)=O)[C@@H]2[C@H]1OC(=O)c1ccccc1

>  <InChIKey>  (68) 
PDRWXFDCQXKDSK-REVJNMIYSA-N

$$$$

     RDKit          2D

 27 28  0  0  0  0  0  0  0  0999 V2000
   41.1099   -9.4554    0.0000 C   0  0  0  0  0  0  0  0  0  0  0  0
   41.1088  -10.2750    0.0000 C   0  0  0  0  0  0  0  0  0  0  0  0
   41.8168  -10.6839    0.0000 C   0  0  0  0  0  0  0  0  0  0  0  0
   42.5265  -10.2745    0.0000 C   0  0  0  0  0  0  0  0  0  0  0  0
   42.5236   -9.4518    0.0000 C   0  0  0  0  0  0  0  0  0  0  0  0
   41.8150   -9.0466    0.0000 C   0  0  0  0  0  0  0  0  0  0  0  0
   43.2298   -9.0406    0.0000 C   0  0  0  0  0  0  0  0  0  0  0  0
   43.9390   -9.4465    0.0000 C   0  0  0  0  0  0  0  0  0  0  0  0
   44.6452   -9.0353    0.0000 C   0  0  0  0  0  0  0  0  0  0  0  0
   45.3545   -9.4412    0.0000 C   0  0  0  0  0  0  0  0  0  0  0  0
   45.3544  -10.2572    0.0000 C   0  0  0  0  0  0  0  0  0  0  0  0
   46.0628  -10.6631    0.0000 C   0  0  0  0  0  0  0  0  0  0  0  0
   46.7700  -10.2518    0.0000 C   0  0  0  0  0  0  0  0  0  0  0  0
   46.7643   -9.4304    0.0000 C   0  0  0  0  0  0  0  0  0  0  0  0
   46.0553   -9.0282    0.0000 C   0  0  0  0  0  0  0  0  0  0  0  0
   43.2348  -10.6820    0.0000 O   0  0  0  0  0  0  0  0  0  0  0  0
   40.4007  -10.6830    0.0000 O   0  0  0  0  0  0  0  0  0  0  0  0
   40.4021   -9.0470    0.0000 C   0  0  0  0  0  0  0  0  0  0  0  0
   41.8126   -8.2294    0.0000 O   0  0  0  0  0  0  0  0  0  0  0  0
   43.2361  -11.4992    0.0000 C   0  0  0  0  0  0  0  0  0  0  0  0
   43.2267   -8.2234    0.0000 O   0  0  0  0  0  0  0  0  0  0  0  0
   40.4001  -11.5002    0.0000 C   0  0  0  0  0  0  0  0  0  0  0  0
   39.6945   -9.4558    0.0000 C   0  0  0  0  0  0  0  0  0  0  0  0
   38.9867   -9.0474    0.0000 C   0  0  0  0  0  0  0  0  0  0  0  0
   38.2791   -9.4561    0.0000 C   0  0  0  0  0  0  0  0  0  0  0  0
   38.9865   -8.2302    0.0000 C   0  0  0  0  0  0  0  0  0  0  0  0
   46.0655  -11.4803    0.0000 F   0  0  0  0  0  0  0  0  0  0  0  0
  1  2  2  0
  2  3  1  0
  3  4  2  0
  4  5  1  0
  5  6  2  0
  6  1  1  0
  5  7  1  0
  7  8  1  0
  8  9  2  0
  9 10  1  0
 10 11  2  0
 11 12  1  0
 12 13  2  0
 13 14  1  0
 14 15  2  0
 15 10  1  0
  4 16  1  0
  2 17  1  0
  1 18  1  0
  6 19  1  0
 16 20  1  0
  7 21  2  0
 17 22  1  0
 18 23  1  0
 23 24  2  3
 24 25  1  0
 24 26  1  0
 12 27  1  0
M  END
>  <Curated_InChIs>  (69) 
InChI=1S/C22H23FO4/c1-14(2)8-10-17-19(26-3)13-20(27-4)21(22(17)25)18(24)11-9-15-6-5-7-16(23)12-15/h5-9,11-13,25H,10H2,1-4H3

>  <threshold>  (69) 
5

>  <pchembl>  (69) 
4.9

>  <Classification>  (69) 
0

>  <source>  (69) 
chembl_28

>  <SMILES>  (69) 
COc1cc(OC)c(C(=O)/C=C/c2cccc(F)c2)c(O)c1CC=C(C)C

>  <InChIKey>  (69) 
PHOQIZHPOBSIIH-PKNBQFBNSA-N

$$$$

     RDKit          2D

 44 46  0  0  0  0  0  0  0  0999 V2000
   16.9134   -2.4598    0.0000 C   0  0  0  0  0  0  0  0  0  0  0  0
   16.5089   -3.1697    0.0000 C   0  0  0  0  0  0  0  0  0  0  0  0
   17.3259   -3.1650    0.0000 C   0  0  0  0  0  0  0  0  0  0  0  0
   14.5354   -3.9902    0.0000 C   0  0  0  0  0  0  0  0  0  0  0  0
   15.1106   -2.5913    0.0000 C   0  0  0  0  0  0  0  0  0  0  0  0
   15.1107   -4.5654    0.0000 C   0  0  0  0  0  0  0  0  0  0  0  0
   15.9303   -4.5654    0.0000 C   0  0  0  0  0  0  0  0  0  0  0  0
   16.5096   -3.9902    0.0000 C   0  0  0  0  0  0  0  0  0  0  0  0
   15.9303   -2.5912    0.0000 C   0  0  0  0  0  0  0  0  0  0  0  0
   11.8699   -3.0005    0.0000 C   0  0  0  0  0  0  0  0  0  0  0  0
   12.3568   -2.3418    0.0000 C   0  0  0  0  0  0  0  0  0  0  0  0
   12.3500   -3.6713    0.0000 C   0  0  0  0  0  0  0  0  0  0  0  0
   12.0931   -4.4474    0.0000 O   0  0  0  0  0  0  0  0  0  0  0  0
   11.0527   -2.9942    0.0000 C   0  0  0  0  0  0  0  0  0  0  0  0
   12.7188   -1.8871    0.0000 O   0  0  0  0  0  0  0  0  0  0  0  0
   13.1363   -3.4165    0.0000 C   0  0  0  0  0  0  0  0  0  0  0  0
   13.1364   -2.5969    0.0000 C   0  0  0  0  0  0  0  0  0  0  0  0
   13.7130   -2.0203    0.0000 C   0  0  0  0  0  0  0  0  0  0  0  0
   13.7131   -3.9932    0.0000 C   0  0  0  0  0  0  0  0  0  0  0  0
   15.1094   -3.4165    0.0000 C   0  0  0  0  0  0  0  0  0  0  0  0
   14.5326   -2.0201    0.0000 C   0  0  0  0  0  0  0  0  0  0  0  0
   11.9016   -1.8944    0.0000 C   0  0  0  0  0  0  0  0  0  0  0  0
   11.4867   -1.1904    0.0000 O   0  0  0  0  0  0  0  0  0  0  0  0
   11.4994   -2.6057    0.0000 C   0  0  0  0  0  0  0  0  0  0  0  0
   13.4002   -1.2653    0.0000 O   0  0  0  0  0  0  0  0  0  0  0  0
   14.8453   -1.2651    0.0000 C   0  0  0  0  0  0  0  0  0  0  0  0
   17.2641   -4.3040    0.0000 O   0  0  0  0  0  0  0  0  0  0  0  0
   14.7980   -5.3206    0.0000 O   0  0  0  0  0  0  0  0  0  0  0  0
   15.2114   -6.0255    0.0000 C   0  0  0  0  0  0  0  0  0  0  0  0
   14.8078   -6.7360    0.0000 C   0  0  0  0  0  0  0  0  0  0  0  0
   16.0286   -6.0198    0.0000 O   0  0  0  0  0  0  0  0  0  0  0  0
   16.2417   -5.3209    0.0000 O   0  0  0  0  0  0  0  0  0  0  0  0
   11.2760   -4.4561    0.0000 C   0  0  0  0  0  0  0  0  0  0  0  0
   10.8750   -5.1682    0.0000 C   0  0  0  0  0  0  0  0  0  0  0  0
   10.8598   -3.7529    0.0000 O   0  0  0  0  0  0  0  0  0  0  0  0
   13.4018   -4.7488    0.0000 O   0  0  0  0  0  0  0  0  0  0  0  0
   13.3970   -5.5635    0.0000 C   0  0  0  0  0  0  0  0  0  0  0  0
   14.1023   -5.9763    0.0000 O   0  0  0  0  0  0  0  0  0  0  0  0
   12.6869   -5.9679    0.0000 C   0  0  0  0  0  0  0  0  0  0  0  0
   11.9854   -5.5545    0.0000 C   0  0  0  0  0  0  0  0  0  0  0  0
   11.2758   -5.9582    0.0000 C   0  0  0  0  0  0  0  0  0  0  0  0
   11.2705   -6.7762    0.0000 C   0  0  0  0  0  0  0  0  0  0  0  0
   11.9808   -7.1889    0.0000 C   0  0  0  0  0  0  0  0  0  0  0  0
   12.6875   -6.7828    0.0000 C   0  0  0  0  0  0  0  0  0  0  0  0
  2  1  1  0
  3  2  1  0
  4  6  1  0
  6  7  1  0
  7  8  1  0
  8  2  1  0
  2  9  1  0
  9  5  2  0
 17 11  1  0
 11 10  1  0
 10 12  1  0
 12 16  1  0
 12 13  1  1
 10 14  1  1
 17 15  1  1
 16 17  1  0
 17 18  1  0
 16 19  1  1
 19  4  1  0
  4 20  2  0
  5 21  1  0
 21 18  1  0
 15 22  1  0
 22 23  2  0
 22 24  1  0
 18 25  2  0
 21 26  1  1
  8 27  2  0
  6 28  1  1
 28 29  1  0
 29 30  1  0
 29 31  2  0
  7 32  1  6
 13 33  1  0
 33 34  1  0
 33 35  2  0
 19 36  1  6
 36 37  1  0
 37 38  2  0
 37 39  1  0
 39 40  2  0
 40 41  1  0
 41 42  2  0
 42 43  1  0
 43 44  2  0
 44 39  1  0
M  END
>  <Curated_InChIs>  (70) 
InChI=1S/C33H40O11/c1-17-14-15-32(7,8)30(39)25(37)28(42-21(5)35)19(3)27(43-31(40)23-12-10-9-11-13-23)24-26(41-20(4)34)18(2)16-33(24,29(17)38)44-22(6)36/h9-15,17-18,24-28,37H,3,16H2,1-2,4-8H3

>  <threshold>  (70) 
5

>  <pchembl>  (70) 
4.67

>  <Classification>  (70) 
0

>  <source>  (70) 
chembl_28

>  <SMILES>  (70) 
C=C1[C@H](OC(C)=O)[C@@H](O)C(=O)C(C)(C)/C=C/[C@H](C)C(=O)[C@@]2(OC(C)=O)C[C@H](C)[C@H](OC(C)=O)[C@@H]2[C@H]1OC(=O)c1ccccc1

>  <InChIKey>  (70) 
PQNNHWCHNOPKGC-PSLQACODSA-N

$$$$

     RDKit          2D

 35 39  0  0  0  0  0  0  0  0999 V2000
   30.0173  -14.4742    0.0000 C   0  0  0  0  0  0  0  0  0  0  0  0
   30.0173  -15.2914    0.0000 N   0  0  0  0  0  0  0  0  0  0  0  0
   30.7226  -15.6959    0.0000 C   0  0  0  0  0  0  0  0  0  0  0  0
   31.4279  -15.2914    0.0000 C   0  0  0  0  0  0  0  0  0  0  0  0
   31.4279  -14.4742    0.0000 N   0  0  0  0  0  0  0  0  0  0  0  0
   30.7226  -14.0615    0.0000 C   0  0  0  0  0  0  0  0  0  0  0  0
   32.1368  -14.0677    0.0000 C   0  0  0  0  0  0  0  0  0  0  0  0
   32.8433  -14.4783    0.0000 C   0  0  0  0  0  0  0  0  0  0  0  0
   32.1392  -13.2505    0.0000 O   0  0  0  0  0  0  0  0  0  0  0  0
   32.8409  -15.2955    0.0000 S   0  0  0  0  0  0  0  0  0  0  0  0
   33.5474  -15.7062    0.0000 C   0  0  0  0  0  0  0  0  0  0  0  0
   33.6326  -16.5174    0.0000 N   0  0  0  0  0  0  0  0  0  0  0  0
   34.4314  -16.6897    0.0000 C   0  0  0  0  0  0  0  0  0  0  0  0
   34.8421  -15.9831    0.0000 N   0  0  0  0  0  0  0  0  0  0  0  0
   34.2970  -15.3743    0.0000 N   0  0  0  0  0  0  0  0  0  0  0  0
   34.7610  -17.4320    0.0000 C   0  0  0  0  0  0  0  0  0  0  0  0
   34.2770  -18.0919    0.0000 C   0  0  0  0  0  0  0  0  0  0  0  0
   34.6066  -18.8388    0.0000 N   0  0  0  0  0  0  0  0  0  0  0  0
   35.4199  -18.9271    0.0000 C   0  0  0  0  0  0  0  0  0  0  0  0
   35.9025  -18.2625    0.0000 C   0  0  0  0  0  0  0  0  0  0  0  0
   35.5703  -17.5182    0.0000 C   0  0  0  0  0  0  0  0  0  0  0  0
   33.0270  -17.0600    0.0000 C   0  0  0  0  0  0  0  0  0  0  0  0
   32.2496  -16.8047    0.0000 C   0  0  0  0  0  0  0  0  0  0  0  0
   31.6418  -17.3498    0.0000 C   0  0  0  0  0  0  0  0  0  0  0  0
   31.8102  -18.1504    0.0000 C   0  0  0  0  0  0  0  0  0  0  0  0
   32.5919  -18.4029    0.0000 C   0  0  0  0  0  0  0  0  0  0  0  0
   33.1963  -17.8561    0.0000 C   0  0  0  0  0  0  0  0  0  0  0  0
   32.0817  -16.0049    0.0000 C   0  0  0  0  0  0  0  0  0  0  0  0
   29.3102  -15.7010    0.0000 C   0  0  0  0  0  0  0  0  0  0  0  0
   28.6019  -15.2934    0.0000 C   0  0  0  0  0  0  0  0  0  0  0  0
   28.6037  -14.4772    0.0000 C   0  0  0  0  0  0  0  0  0  0  0  0
   27.8962  -14.0697    0.0000 C   0  0  0  0  0  0  0  0  0  0  0  0
   27.1882  -14.4794    0.0000 C   0  0  0  0  0  0  0  0  0  0  0  0
   27.1920  -15.3008    0.0000 C   0  0  0  0  0  0  0  0  0  0  0  0
   27.9000  -15.7046    0.0000 C   0  0  0  0  0  0  0  0  0  0  0  0
  1  2  1  0
  1  6  1  0
  2  3  1  0
  3  4  1  0
  4  5  1  0
  5  6  1  0
  5  7  1  0
  7  8  1  0
  7  9  2  0
  8 10  1  0
 10 11  1  0
 11 12  1  0
 12 13  1  0
 13 14  2  0
 14 15  1  0
 15 11  2  0
 16 17  2  0
 17 18  1  0
 18 19  2  0
 19 20  1  0
 20 21  2  0
 21 16  1  0
 13 16  1  0
 22 23  2  0
 23 24  1  0
 24 25  2  0
 25 26  1  0
 26 27  2  0
 27 22  1  0
 12 22  1  0
 23 28  1  0
  2 29  1  0
 29 30  1  0
 30 31  2  0
 31 32  1  0
 32 33  2  0
 33 34  1  0
 34 35  2  0
 35 30  1  0
M  END
>  <Curated_InChIs>  (71) 
InChI=1S/C27H28N6OS/c1-21-8-5-6-12-24(21)33-26(23-11-7-13-28-18-23)29-30-27(33)35-20-25(34)32-16-14-31(15-17-32)19-22-9-3-2-4-10-22/h2-13,18H,14-17,19-20H2,1H3

>  <threshold>  (71) 
5

>  <pchembl>  (71) 
4.81

>  <Classification>  (71) 
0

>  <source>  (71) 
chembl_28

>  <SMILES>  (71) 
Cc1ccccc1-n1c(SCC(=O)N2CCN(Cc3ccccc3)CC2)nnc1-c1cccnc1

>  <InChIKey>  (71) 
QBFYFTQTUZXTPF-UHFFFAOYSA-N

$$$$

     RDKit          2D

 26 27  0  0  0  0  0  0  0  0999 V2000
   16.3300   -2.3484    0.0000 C   0  0  0  0  0  0  0  0  0  0  0  0
   16.3289   -3.1679    0.0000 C   0  0  0  0  0  0  0  0  0  0  0  0
   17.0369   -3.5769    0.0000 C   0  0  0  0  0  0  0  0  0  0  0  0
   17.7466   -3.1674    0.0000 C   0  0  0  0  0  0  0  0  0  0  0  0
   17.7438   -2.3448    0.0000 C   0  0  0  0  0  0  0  0  0  0  0  0
   17.0351   -1.9395    0.0000 C   0  0  0  0  0  0  0  0  0  0  0  0
   18.4499   -1.9335    0.0000 C   0  0  0  0  0  0  0  0  0  0  0  0
   19.1592   -2.3394    0.0000 C   0  0  0  0  0  0  0  0  0  0  0  0
   19.8653   -1.9282    0.0000 C   0  0  0  0  0  0  0  0  0  0  0  0
   20.5746   -2.3341    0.0000 C   0  0  0  0  0  0  0  0  0  0  0  0
   20.5746   -3.1502    0.0000 C   0  0  0  0  0  0  0  0  0  0  0  0
   21.2830   -3.5560    0.0000 C   0  0  0  0  0  0  0  0  0  0  0  0
   21.9901   -3.1447    0.0000 C   0  0  0  0  0  0  0  0  0  0  0  0
   21.9844   -2.3233    0.0000 C   0  0  0  0  0  0  0  0  0  0  0  0
   21.2754   -1.9211    0.0000 C   0  0  0  0  0  0  0  0  0  0  0  0
   18.4549   -3.5749    0.0000 O   0  0  0  0  0  0  0  0  0  0  0  0
   15.6208   -3.5759    0.0000 O   0  0  0  0  0  0  0  0  0  0  0  0
   15.6222   -1.9399    0.0000 C   0  0  0  0  0  0  0  0  0  0  0  0
   17.0327   -1.1223    0.0000 O   0  0  0  0  0  0  0  0  0  0  0  0
   18.4562   -4.3921    0.0000 C   0  0  0  0  0  0  0  0  0  0  0  0
   18.4468   -1.1163    0.0000 O   0  0  0  0  0  0  0  0  0  0  0  0
   15.6202   -4.3931    0.0000 C   0  0  0  0  0  0  0  0  0  0  0  0
   14.9146   -2.3487    0.0000 C   0  0  0  0  0  0  0  0  0  0  0  0
   14.2068   -1.9403    0.0000 C   0  0  0  0  0  0  0  0  0  0  0  0
   13.4992   -2.3490    0.0000 C   0  0  0  0  0  0  0  0  0  0  0  0
   14.2066   -1.1231    0.0000 C   0  0  0  0  0  0  0  0  0  0  0  0
  1  2  2  0
  2  3  1  0
  3  4  2  0
  4  5  1  0
  5  6  2  0
  6  1  1  0
  5  7  1  0
  7  8  1  0
  8  9  2  0
  9 10  1  0
 10 11  2  0
 11 12  1  0
 12 13  2  0
 13 14  1  0
 14 15  2  0
 15 10  1  0
  4 16  1  0
  2 17  1  0
  1 18  1  0
  6 19  1  0
 16 20  1  0
  7 21  2  0
 17 22  1  0
 18 23  1  0
 23 24  2  3
 24 25  1  0
 24 26  1  0
M  END
>  <Curated_InChIs>  (72) 
InChI=1S/C22H24O4/c1-15(2)10-12-17-19(25-3)14-20(26-4)21(22(17)24)18(23)13-11-16-8-6-5-7-9-16/h5-11,13-14,24H,12H2,1-4H3

>  <threshold>  (72) 
5

>  <pchembl>  (72) 
4.68

>  <Classification>  (72) 
0

>  <source>  (72) 
chembl_28

>  <SMILES>  (72) 
COc1cc(OC)c(C(=O)/C=C/c2ccccc2)c(O)c1CC=C(C)C

>  <InChIKey>  (72) 
QDSRQILTOUZIGL-ACCUITESSA-N

$$$$

     RDKit          2D

 22 23  0  0  0  0  0  0  0  0999 V2000
   -3.8889   -9.6000    0.0000 C   0  0  0  0  0  0  0  0  0  0  0  0
   -3.8901  -10.4273    0.0000 C   0  0  0  0  0  0  0  0  0  0  0  0
   -3.1753  -10.8402    0.0000 C   0  0  0  0  0  0  0  0  0  0  0  0
   -2.4588  -10.4269    0.0000 C   0  0  0  0  0  0  0  0  0  0  0  0
   -2.4617   -9.5963    0.0000 C   0  0  0  0  0  0  0  0  0  0  0  0
   -3.1771   -9.1872    0.0000 C   0  0  0  0  0  0  0  0  0  0  0  0
   -1.7488   -9.1811    0.0000 C   0  0  0  0  0  0  0  0  0  0  0  0
   -1.0328   -9.5909    0.0000 C   0  0  0  0  0  0  0  0  0  0  0  0
   -0.3198   -9.1758    0.0000 C   0  0  0  0  0  0  0  0  0  0  0  0
    0.3946   -9.5890    0.0000 C   0  0  0  0  0  0  0  0  0  0  0  0
    1.1070   -9.1745    0.0000 C   0  0  0  0  0  0  0  0  0  0  0  0
    1.1043   -8.3486    0.0000 C   0  0  0  0  0  0  0  0  0  0  0  0
    0.3833   -7.9390    0.0000 C   0  0  0  0  0  0  0  0  0  0  0  0
   -0.3262   -8.3558    0.0000 C   0  0  0  0  0  0  0  0  0  0  0  0
    0.3773   -7.1140    0.0000 O   0  0  0  0  0  0  0  0  0  0  0  0
    1.8228   -9.5846    0.0000 O   0  0  0  0  0  0  0  0  0  0  0  0
    1.0887   -6.7037    0.0000 C   0  0  0  0  0  0  0  0  0  0  0  0
    2.5359   -9.1698    0.0000 C   0  0  0  0  0  0  0  0  0  0  0  0
   -4.6035   -9.1876    0.0000 O   0  0  0  0  0  0  0  0  0  0  0  0
   -5.3179   -9.6003    0.0000 C   0  0  0  0  0  0  0  0  0  0  0  0
   -6.0324   -9.1880    0.0000 C   0  0  0  0  0  0  0  0  0  0  0  0
   -4.6049  -10.8393    0.0000 O   0  0  0  0  0  0  0  0  0  0  0  0
 10 11  2  0
  5  6  1  0
 11 12  1  0
  6  1  2  0
 12 13  2  0
  1  2  1  0
 13 14  1  0
 14  9  2  0
  5  7  1  0
 13 15  1  0
  3  4  1  0
 11 16  1  0
  7  8  2  0
 15 17  1  0
 16 18  1  0
  8  9  1  0
  1 19  1  0
  4  5  2  0
 19 20  1  0
  9 10  1  0
 20 21  1  0
  2  3  2  0
  2 22  1  0
M  END
>  <Curated_InChIs>  (73) 
InChI=1S/C18H20O4/c1-4-22-18-11-13(7-8-17(18)19)5-6-14-9-15(20-2)12-16(10-14)21-3/h5-12,19H,4H2,1-3H3

>  <threshold>  (73) 
5

>  <pchembl>  (73) 
4.38

>  <Classification>  (73) 
0

>  <source>  (73) 
chembl_28

>  <SMILES>  (73) 
CCOc1cc(/C=C/c2cc(OC)cc(OC)c2)ccc1O

>  <InChIKey>  (73) 
QLVFTUVYNJDWKN-AATRIKPKSA-N

$$$$

     RDKit          2D

 32 34  0  0  0  0  0  0  0  0999 V2000
   20.9484  -10.8422    0.0000 C   0  0  0  0  0  0  0  0  0  0  0  0
   20.9472  -11.6617    0.0000 C   0  0  0  0  0  0  0  0  0  0  0  0
   21.6553  -12.0707    0.0000 C   0  0  0  0  0  0  0  0  0  0  0  0
   22.3650  -11.6613    0.0000 C   0  0  0  0  0  0  0  0  0  0  0  0
   22.3621  -10.8386    0.0000 C   0  0  0  0  0  0  0  0  0  0  0  0
   21.6535  -10.4333    0.0000 C   0  0  0  0  0  0  0  0  0  0  0  0
   23.0683  -10.4273    0.0000 C   0  0  0  0  0  0  0  0  0  0  0  0
   23.7775  -10.8333    0.0000 C   0  0  0  0  0  0  0  0  0  0  0  0
   24.4837  -10.4220    0.0000 C   0  0  0  0  0  0  0  0  0  0  0  0
   25.1929  -10.8279    0.0000 C   0  0  0  0  0  0  0  0  0  0  0  0
   25.1929  -11.6440    0.0000 C   0  0  0  0  0  0  0  0  0  0  0  0
   25.9013  -12.0498    0.0000 C   0  0  0  0  0  0  0  0  0  0  0  0
   26.6085  -11.6385    0.0000 C   0  0  0  0  0  0  0  0  0  0  0  0
   26.6028  -10.8171    0.0000 C   0  0  0  0  0  0  0  0  0  0  0  0
   25.8938  -10.4150    0.0000 C   0  0  0  0  0  0  0  0  0  0  0  0
   23.0733  -12.0687    0.0000 O   0  0  0  0  0  0  0  0  0  0  0  0
   20.2392  -12.0698    0.0000 O   0  0  0  0  0  0  0  0  0  0  0  0
   20.2406  -10.4338    0.0000 C   0  0  0  0  0  0  0  0  0  0  0  0
   21.6511   -9.6161    0.0000 O   0  0  0  0  0  0  0  0  0  0  0  0
   23.0746  -12.8859    0.0000 C   0  0  0  0  0  0  0  0  0  0  0  0
   23.0652   -9.6101    0.0000 O   0  0  0  0  0  0  0  0  0  0  0  0
   20.2386  -12.8870    0.0000 C   0  0  0  0  0  0  0  0  0  0  0  0
   19.5330  -10.8425    0.0000 C   0  0  0  0  0  0  0  0  0  0  0  0
   18.8252  -10.4341    0.0000 C   0  0  0  0  0  0  0  0  0  0  0  0
   18.1176  -10.8429    0.0000 C   0  0  0  0  0  0  0  0  0  0  0  0
   18.8250   -9.6169    0.0000 C   0  0  0  0  0  0  0  0  0  0  0  0
   27.3181  -12.0432    0.0000 N   0  0  0  0  0  0  0  0  0  0  0  0
   27.3203  -12.8614    0.0000 C   0  0  0  0  0  0  0  0  0  0  0  0
   28.0260  -13.2663    0.0000 C   0  0  0  0  0  0  0  0  0  0  0  0
   28.7341  -12.8576    0.0000 N   0  0  0  0  0  0  0  0  0  0  0  0
   28.7319  -12.0394    0.0000 C   0  0  0  0  0  0  0  0  0  0  0  0
   28.0216  -11.6300    0.0000 C   0  0  0  0  0  0  0  0  0  0  0  0
  1  2  2  0
  2  3  1  0
  3  4  2  0
  4  5  1  0
  5  6  2  0
  6  1  1  0
  5  7  1  0
  7  8  1  0
  8  9  2  0
  9 10  1  0
 10 11  2  0
 11 12  1  0
 12 13  2  0
 13 14  1  0
 14 15  2  0
 15 10  1  0
  4 16  1  0
  2 17  1  0
  1 18  1  0
  6 19  1  0
 16 20  1  0
  7 21  2  0
 17 22  1  0
 18 23  1  0
 23 24  2  3
 24 25  1  0
 24 26  1  0
 27 28  1  0
 27 32  1  0
 28 29  1  0
 29 30  1  0
 30 31  1  0
 31 32  1  0
 13 27  1  0
M  END
>  <Curated_InChIs>  (74) 
InChI=1S/C26H32N2O4/c1-18(2)5-11-21-23(31-3)17-24(32-4)25(26(21)30)22(29)12-8-19-6-9-20(10-7-19)28-15-13-27-14-16-28/h5-10,12,17,27,30H,11,13-16H2,1-4H3

>  <threshold>  (74) 
5

>  <pchembl>  (74) 
4.83

>  <Classification>  (74) 
0

>  <source>  (74) 
chembl_28

>  <SMILES>  (74) 
COc1cc(OC)c(C(=O)/C=C/c2ccc(N3CCNCC3)cc2)c(O)c1CC=C(C)C

>  <InChIKey>  (74) 
RCRWNBIKQSFACQ-XYOKQWHBSA-N

$$$$

     RDKit          2D

 27 29  0  0  0  0  0  0  0  0999 V2000
   20.8576  -25.6548    0.0000 C   0  0  0  0  0  0  0  0  0  0  0  0
   20.8564  -26.4744    0.0000 C   0  0  0  0  0  0  0  0  0  0  0  0
   21.5645  -26.8833    0.0000 C   0  0  0  0  0  0  0  0  0  0  0  0
   22.2742  -26.4739    0.0000 C   0  0  0  0  0  0  0  0  0  0  0  0
   22.2713  -25.6512    0.0000 C   0  0  0  0  0  0  0  0  0  0  0  0
   21.5627  -25.2460    0.0000 C   0  0  0  0  0  0  0  0  0  0  0  0
   22.9775  -25.2400    0.0000 C   0  0  0  0  0  0  0  0  0  0  0  0
   23.6867  -25.6459    0.0000 C   0  0  0  0  0  0  0  0  0  0  0  0
   24.3929  -25.2346    0.0000 C   0  0  0  0  0  0  0  0  0  0  0  0
   25.1021  -25.6405    0.0000 C   0  0  0  0  0  0  0  0  0  0  0  0
   25.1021  -26.4566    0.0000 C   0  0  0  0  0  0  0  0  0  0  0  0
   25.8105  -26.8625    0.0000 C   0  0  0  0  0  0  0  0  0  0  0  0
   26.5177  -26.4511    0.0000 C   0  0  0  0  0  0  0  0  0  0  0  0
   26.5120  -25.6297    0.0000 C   0  0  0  0  0  0  0  0  0  0  0  0
   25.8030  -25.2276    0.0000 C   0  0  0  0  0  0  0  0  0  0  0  0
   22.9825  -26.8814    0.0000 O   0  0  0  0  0  0  0  0  0  0  0  0
   20.1484  -26.8824    0.0000 O   0  0  0  0  0  0  0  0  0  0  0  0
   21.5603  -24.4288    0.0000 O   0  0  0  0  0  0  0  0  0  0  0  0
   22.9838  -27.6986    0.0000 C   0  0  0  0  0  0  0  0  0  0  0  0
   22.9744  -24.4228    0.0000 O   0  0  0  0  0  0  0  0  0  0  0  0
   20.1478  -27.6996    0.0000 C   0  0  0  0  0  0  0  0  0  0  0  0
   27.2273  -26.8559    0.0000 N   0  0  0  0  0  0  0  0  0  0  0  0
   27.2295  -27.6740    0.0000 C   0  0  0  0  0  0  0  0  0  0  0  0
   27.9352  -28.0789    0.0000 C   0  0  0  0  0  0  0  0  0  0  0  0
   28.6433  -27.6702    0.0000 N   0  0  0  0  0  0  0  0  0  0  0  0
   28.6411  -26.8520    0.0000 C   0  0  0  0  0  0  0  0  0  0  0  0
   27.9308  -26.4426    0.0000 C   0  0  0  0  0  0  0  0  0  0  0  0
  1  2  2  0
  2  3  1  0
  3  4  2  0
  4  5  1  0
  5  6  2  0
  6  1  1  0
  5  7  1  0
  7  8  1  0
  8  9  2  0
  9 10  1  0
 10 11  2  0
 11 12  1  0
 12 13  2  0
 13 14  1  0
 14 15  2  0
 15 10  1  0
  4 16  1  0
  2 17  1  0
  6 18  1  0
 16 19  1  0
  7 20  2  0
 17 21  1  0
 22 23  1  0
 22 27  1  0
 23 24  1  0
 24 25  1  0
 25 26  1  0
 26 27  1  0
 13 22  1  0
M  END
>  <Curated_InChIs>  (75) 
InChI=1S/C21H24N2O4/c1-26-17-13-19(25)21(20(14-17)27-2)18(24)8-5-15-3-6-16(7-4-15)23-11-9-22-10-12-23/h3-8,13-14,22,25H,9-12H2,1-2H3

>  <threshold>  (75) 
5

>  <pchembl>  (75) 
4.78

>  <Classification>  (75) 
0

>  <source>  (75) 
chembl_28

>  <SMILES>  (75) 
COc1cc(O)c(C(=O)/C=C/c2ccc(N3CCNCC3)cc2)c(OC)c1

>  <InChIKey>  (75) 
RDBYHAGNGNMHQM-VMPITWQZSA-N

$$$$

     RDKit          2D

 30 33  0  0  0  0  0  0  0  0999 V2000
   -5.4299  -12.1026    0.0000 C   0  0  0  0  0  0  0  0  0  0  0  0
   -5.4311  -12.9299    0.0000 C   0  0  0  0  0  0  0  0  0  0  0  0
   -4.7163  -13.3428    0.0000 C   0  0  0  0  0  0  0  0  0  0  0  0
   -4.7181  -11.6900    0.0000 C   0  0  0  0  0  0  0  0  0  0  0  0
   -4.0029  -12.0990    0.0000 C   0  0  0  0  0  0  0  0  0  0  0  0
   -3.9994  -12.9320    0.0000 C   0  0  0  0  0  0  0  0  0  0  0  0
   -3.2804  -13.3433    0.0000 C   0  0  0  0  0  0  0  0  0  0  0  0
   -2.5601  -12.9261    0.0000 N   0  0  0  0  0  0  0  0  0  0  0  0
   -2.5635  -12.0931    0.0000 C   0  0  0  0  0  0  0  0  0  0  0  0
   -3.2872  -11.6773    0.0000 C   0  0  0  0  0  0  0  0  0  0  0  0
   -1.8446  -13.3366    0.0000 C   0  0  0  0  0  0  0  0  0  0  0  0
   -1.1313  -12.9222    0.0000 C   0  0  0  0  0  0  0  0  0  0  0  0
   -0.4157  -13.3327    0.0000 C   0  0  0  0  0  0  0  0  0  0  0  0
   -0.4171  -14.1577    0.0000 C   0  0  0  0  0  0  0  0  0  0  0  0
    0.2976  -14.5681    0.0000 C   0  0  0  0  0  0  0  0  0  0  0  0
    1.0118  -14.1537    0.0000 C   0  0  0  0  0  0  0  0  0  0  0  0
    1.0069  -13.3245    0.0000 C   0  0  0  0  0  0  0  0  0  0  0  0
    0.2916  -12.9178    0.0000 C   0  0  0  0  0  0  0  0  0  0  0  0
    1.7278  -14.5632    0.0000 N   0  0  0  0  0  0  0  0  0  0  0  0
    2.4405  -14.1479    0.0000 C   0  0  0  0  0  0  0  0  0  0  0  0
    2.4372  -13.3230    0.0000 O   0  0  0  0  0  0  0  0  0  0  0  0
    3.1566  -14.5574    0.0000 C   0  0  0  0  0  0  0  0  0  0  0  0
    3.1585  -15.3825    0.0000 C   0  0  0  0  0  0  0  0  0  0  0  0
    3.8737  -15.7920    0.0000 C   0  0  0  0  0  0  0  0  0  0  0  0
    4.5874  -15.3766    0.0000 C   0  0  0  0  0  0  0  0  0  0  0  0
    4.5814  -14.5474    0.0000 C   0  0  0  0  0  0  0  0  0  0  0  0
    3.8656  -14.1417    0.0000 C   0  0  0  0  0  0  0  0  0  0  0  0
    2.4419  -15.8016    0.0000 N   0  0  0  0  0  0  0  0  0  0  0  0
    2.4443  -16.6265    0.0000 O   0  0  0  0  0  0  0  0  0  0  0  0
    1.7263  -15.3912    0.0000 O   0  0  0  0  0  0  0  0  0  0  0  0
  1  2  2  0
 14 15  2  0
  5  4  2  0
 15 16  1  0
  4  1  1  0
 16 17  2  0
  5 10  1  0
 17 18  1  0
 18 13  2  0
  6  7  1  0
 16 19  1  0
  7  8  1  0
 19 20  1  0
  8  9  1  0
 20 21  2  0
  9 10  1  0
 20 22  1  0
  5  6  1  0
 22 23  2  0
  8 11  1  0
 23 24  1  0
 24 25  2  0
 11 12  1  0
 25 26  1  0
  2  3  1  0
 26 27  2  0
 27 22  1  0
 12 13  1  0
  3  6  2  0
 13 14  1  0
 28 29  2  0
 28 30  1  0
 23 28  1  0
M  CHG  2  28   1  30  -1
M  END
>  <Curated_InChIs>  (76) 
InChI=1S/C24H23N3O3/c28-24(22-7-3-4-8-23(22)27(29)30)25-21-11-9-18(10-12-21)13-15-26-16-14-19-5-1-2-6-20(19)17-26/h1-12H,13-17H2,(H,25,28)

>  <threshold>  (76) 
5

>  <pchembl>  (76) 
4.91, 4.87, 4.85

>  <Classification>  (76) 
0

>  <source>  (76) 
chembl_28

>  <SMILES>  (76) 
O=C(Nc1ccc(CCN2CCc3ccccc3C2)cc1)c1ccccc1[N+](=O)[O-]

>  <InChIKey>  (76) 
SGQWLVLTMUGAHO-UHFFFAOYSA-N

$$$$

     RDKit          2D

 30 31  0  0  0  0  0  0  0  0999 V2000
   28.9965  -16.8473    0.0000 C   0  0  0  0  0  0  0  0  0  0  0  0
   28.9953  -17.6668    0.0000 C   0  0  0  0  0  0  0  0  0  0  0  0
   29.7034  -18.0758    0.0000 C   0  0  0  0  0  0  0  0  0  0  0  0
   30.4131  -17.6664    0.0000 C   0  0  0  0  0  0  0  0  0  0  0  0
   30.4102  -16.8437    0.0000 C   0  0  0  0  0  0  0  0  0  0  0  0
   29.7016  -16.4384    0.0000 C   0  0  0  0  0  0  0  0  0  0  0  0
   31.1164  -16.4325    0.0000 C   0  0  0  0  0  0  0  0  0  0  0  0
   31.8256  -16.8384    0.0000 C   0  0  0  0  0  0  0  0  0  0  0  0
   32.5318  -16.4271    0.0000 C   0  0  0  0  0  0  0  0  0  0  0  0
   33.2410  -16.8330    0.0000 C   0  0  0  0  0  0  0  0  0  0  0  0
   33.2410  -17.6491    0.0000 C   0  0  0  0  0  0  0  0  0  0  0  0
   33.9494  -18.0550    0.0000 C   0  0  0  0  0  0  0  0  0  0  0  0
   34.6566  -17.6436    0.0000 C   0  0  0  0  0  0  0  0  0  0  0  0
   34.6508  -16.8222    0.0000 C   0  0  0  0  0  0  0  0  0  0  0  0
   33.9419  -16.4201    0.0000 C   0  0  0  0  0  0  0  0  0  0  0  0
   31.1214  -18.0739    0.0000 O   0  0  0  0  0  0  0  0  0  0  0  0
   28.2873  -18.0749    0.0000 O   0  0  0  0  0  0  0  0  0  0  0  0
   28.2887  -16.4389    0.0000 C   0  0  0  0  0  0  0  0  0  0  0  0
   29.6992  -15.6213    0.0000 O   0  0  0  0  0  0  0  0  0  0  0  0
   31.1227  -18.8910    0.0000 C   0  0  0  0  0  0  0  0  0  0  0  0
   31.1133  -15.6153    0.0000 O   0  0  0  0  0  0  0  0  0  0  0  0
   28.2867  -18.8921    0.0000 C   0  0  0  0  0  0  0  0  0  0  0  0
   27.5811  -16.8476    0.0000 C   0  0  0  0  0  0  0  0  0  0  0  0
   26.8733  -16.4392    0.0000 C   0  0  0  0  0  0  0  0  0  0  0  0
   26.1657  -16.8480    0.0000 C   0  0  0  0  0  0  0  0  0  0  0  0
   26.8731  -15.6220    0.0000 C   0  0  0  0  0  0  0  0  0  0  0  0
   35.3664  -18.0486    0.0000 C   0  0  0  0  0  0  0  0  0  0  0  0
   35.3705  -18.8658    0.0000 F   0  0  0  0  0  0  0  0  0  0  0  0
   36.0720  -17.6364    0.0000 F   0  0  0  0  0  0  0  0  0  0  0  0
   36.0720  -18.4570    0.0000 F   0  0  0  0  0  0  0  0  0  0  0  0
  1  2  2  0
  2  3  1  0
  3  4  2  0
  4  5  1  0
  5  6  2  0
  6  1  1  0
  5  7  1  0
  7  8  1  0
  8  9  2  0
  9 10  1  0
 10 11  2  0
 11 12  1  0
 12 13  2  0
 13 14  1  0
 14 15  2  0
 15 10  1  0
  4 16  1  0
  2 17  1  0
  1 18  1  0
  6 19  1  0
 16 20  1  0
  7 21  2  0
 17 22  1  0
 18 23  1  0
 23 24  2  3
 24 25  1  0
 24 26  1  0
 13 27  1  0
 27 28  1  0
 27 29  1  0
 27 30  1  0
M  END
>  <Curated_InChIs>  (77) 
InChI=1S/C23H23F3O4/c1-14(2)5-11-17-19(29-3)13-20(30-4)21(22(17)28)18(27)12-8-15-6-9-16(10-7-15)23(24,25)26/h5-10,12-13,28H,11H2,1-4H3

>  <threshold>  (77) 
5

>  <pchembl>  (77) 
4.63

>  <Classification>  (77) 
0

>  <source>  (77) 
chembl_28

>  <SMILES>  (77) 
COc1cc(OC)c(C(=O)/C=C/c2ccc(C(F)(F)F)cc2)c(O)c1CC=C(C)C

>  <InChIKey>  (77) 
SSKJQTHORWZWKS-XYOKQWHBSA-N

$$$$

     RDKit          2D

 41 43  0  0  0  0  0  0  0  0999 V2000
   39.2376  -20.6279    0.0000 C   0  0  0  0  0  0  0  0  0  0  0  0
   38.8331  -21.3378    0.0000 C   0  0  0  0  0  0  0  0  0  0  0  0
   39.6501  -21.3331    0.0000 C   0  0  0  0  0  0  0  0  0  0  0  0
   36.8596  -22.1583    0.0000 C   0  0  0  0  0  0  0  0  0  0  0  0
   37.4348  -20.7594    0.0000 C   0  0  0  0  0  0  0  0  0  0  0  0
   37.4349  -22.7334    0.0000 C   0  0  0  0  0  0  0  0  0  0  0  0
   38.2545  -22.7334    0.0000 C   0  0  0  0  0  0  0  0  0  0  0  0
   38.8338  -22.1583    0.0000 C   0  0  0  0  0  0  0  0  0  0  0  0
   38.2545  -20.7593    0.0000 C   0  0  0  0  0  0  0  0  0  0  0  0
   34.1941  -21.1686    0.0000 C   0  0  0  0  0  0  0  0  0  0  0  0
   34.6810  -20.5099    0.0000 C   0  0  0  0  0  0  0  0  0  0  0  0
   34.6742  -21.8394    0.0000 C   0  0  0  0  0  0  0  0  0  0  0  0
   34.2700  -22.5501    0.0000 O   0  0  0  0  0  0  0  0  0  0  0  0
   35.0430  -20.0552    0.0000 O   0  0  0  0  0  0  0  0  0  0  0  0
   35.4605  -21.5846    0.0000 C   0  0  0  0  0  0  0  0  0  0  0  0
   35.4606  -20.7649    0.0000 C   0  0  0  0  0  0  0  0  0  0  0  0
   36.0372  -20.1883    0.0000 C   0  0  0  0  0  0  0  0  0  0  0  0
   36.0373  -22.1613    0.0000 C   0  0  0  0  0  0  0  0  0  0  0  0
   37.4335  -21.5846    0.0000 C   0  0  0  0  0  0  0  0  0  0  0  0
   36.8568  -20.1882    0.0000 C   0  0  0  0  0  0  0  0  0  0  0  0
   35.7244  -19.4334    0.0000 O   0  0  0  0  0  0  0  0  0  0  0  0
   37.1695  -19.4332    0.0000 C   0  0  0  0  0  0  0  0  0  0  0  0
   39.5883  -22.4720    0.0000 O   0  0  0  0  0  0  0  0  0  0  0  0
   37.1222  -23.4884    0.0000 O   0  0  0  0  0  0  0  0  0  0  0  0
   37.5340  -24.1945    0.0000 C   0  0  0  0  0  0  0  0  0  0  0  0
   37.1287  -24.9041    0.0000 C   0  0  0  0  0  0  0  0  0  0  0  0
   38.3512  -24.1906    0.0000 O   0  0  0  0  0  0  0  0  0  0  0  0
   38.6733  -23.4347    0.0000 O   0  0  0  0  0  0  0  0  0  0  0  0
   33.4528  -22.5556    0.0000 C   0  0  0  0  0  0  0  0  0  0  0  0
   33.0490  -23.2661    0.0000 C   0  0  0  0  0  0  0  0  0  0  0  0
   33.0394  -21.8507    0.0000 O   0  0  0  0  0  0  0  0  0  0  0  0
   35.7260  -22.9168    0.0000 O   0  0  0  0  0  0  0  0  0  0  0  0
   35.7212  -23.7316    0.0000 C   0  0  0  0  0  0  0  0  0  0  0  0
   36.4264  -24.1443    0.0000 O   0  0  0  0  0  0  0  0  0  0  0  0
   35.0111  -24.1360    0.0000 C   0  0  0  0  0  0  0  0  0  0  0  0
   32.2316  -23.2666    0.0000 C   0  0  0  0  0  0  0  0  0  0  0  0
   31.8279  -23.9762    0.0000 C   0  0  0  0  0  0  0  0  0  0  0  0
   32.2414  -24.6821    0.0000 C   0  0  0  0  0  0  0  0  0  0  0  0
   33.0628  -24.6739    0.0000 C   0  0  0  0  0  0  0  0  0  0  0  0
   33.4628  -23.9638    0.0000 C   0  0  0  0  0  0  0  0  0  0  0  0
   33.3769  -21.1623    0.0000 C   0  0  0  0  0  0  0  0  0  0  0  0
  2  1  1  0
  3  2  1  0
  4  6  1  0
  6  7  1  0
  7  8  1  0
  8  2  1  0
  2  9  1  0
  9  5  2  0
 16 11  1  0
 11 10  1  0
 10 12  1  0
 12 15  1  0
 12 13  1  1
 16 14  1  1
 15 16  1  0
 16 17  1  0
 15 18  1  1
 18  4  1  0
  4 19  2  0
  5 20  1  0
 20 17  1  0
 17 21  2  0
 20 22  1  1
  8 23  2  0
  6 24  1  1
 24 25  1  0
 25 26  1  0
 25 27  2  0
  7 28  1  6
 13 29  1  0
 29 30  1  0
 29 31  2  0
 18 32  1  6
 32 33  1  0
 33 34  2  0
 33 35  1  0
 30 36  2  0
 36 37  1  0
 37 38  2  0
 38 39  1  0
 39 40  2  0
 40 30  1  0
 10 41  1  1
M  END
>  <Curated_InChIs>  (78) 
InChI=1S/C31H38O10/c1-16-13-14-30(6,7)28(36)23(34)26(40-20(5)33)18(3)25(39-19(4)32)22-24(17(2)15-31(22,38)27(16)35)41-29(37)21-11-9-8-10-12-21/h8-14,16-17,22-26,34,38H,3,15H2,1-2,4-7H3

>  <threshold>  (78) 
5

>  <pchembl>  (78) 
4.6

>  <Classification>  (78) 
0

>  <source>  (78) 
chembl_28

>  <SMILES>  (78) 
C=C1[C@H](OC(C)=O)[C@@H](O)C(=O)C(C)(C)/C=C/[C@H](C)C(=O)[C@@]2(O)C[C@H](C)[C@H](OC(=O)c3ccccc3)[C@@H]2[C@H]1OC(C)=O

>  <InChIKey>  (78) 
TURQXJFADDBDSZ-JSJDLNBESA-N

$$$$

     RDKit          2D

 22 23  0  0  0  0  0  0  0  0999 V2000
    7.7652   -6.8083    0.0000 C   0  0  0  0  0  0  0  0  0  0  0  0
    7.7641   -7.6357    0.0000 C   0  0  0  0  0  0  0  0  0  0  0  0
    8.4789   -8.0485    0.0000 C   0  0  0  0  0  0  0  0  0  0  0  0
    9.1953   -7.6352    0.0000 C   0  0  0  0  0  0  0  0  0  0  0  0
    9.1925   -6.8047    0.0000 C   0  0  0  0  0  0  0  0  0  0  0  0
    8.4771   -6.3955    0.0000 C   0  0  0  0  0  0  0  0  0  0  0  0
    8.4746   -5.5705    0.0000 C   0  0  0  0  0  0  0  0  0  0  0  0
    7.0507   -6.3960    0.0000 O   0  0  0  0  0  0  0  0  0  0  0  0
    7.0493   -8.0476    0.0000 C   0  0  0  0  0  0  0  0  0  0  0  0
    9.9054   -6.3895    0.0000 O   0  0  0  0  0  0  0  0  0  0  0  0
    9.9023   -5.5645    0.0000 C   0  0  0  0  0  0  0  0  0  0  0  0
    9.9105   -8.0466    0.0000 C   0  0  0  0  0  0  0  0  0  0  0  0
    9.9117   -8.8716    0.0000 O   0  0  0  0  0  0  0  0  0  0  0  0
   10.6243   -7.6329    0.0000 C   0  0  0  0  0  0  0  0  0  0  0  0
   10.6230   -6.8079    0.0000 C   0  0  0  0  0  0  0  0  0  0  0  0
   11.3368   -6.3943    0.0000 C   0  0  0  0  0  0  0  0  0  0  0  0
   12.0495   -6.8067    0.0000 C   0  0  0  0  0  0  0  0  0  0  0  0
   12.7628   -6.3938    0.0000 C   0  0  0  0  0  0  0  0  0  0  0  0
   12.7620   -5.5679    0.0000 C   0  0  0  0  0  0  0  0  0  0  0  0
   12.0419   -5.1567    0.0000 C   0  0  0  0  0  0  0  0  0  0  0  0
   11.3315   -5.5720    0.0000 C   0  0  0  0  0  0  0  0  0  0  0  0
    8.4787   -8.8735    0.0000 O   0  0  0  0  0  0  0  0  0  0  0  0
 10 11  1  0
  5  6  1  0
  4 12  1  0
  6  1  2  0
 12 13  2  0
  1  2  1  0
 12 14  1  0
  6  7  1  0
 14 15  2  0
  3  4  1  0
 15 16  1  0
  1  8  1  0
 16 17  2  0
 17 18  1  0
  2  9  1  0
 18 19  2  0
  4  5  2  0
 19 20  1  0
  5 10  1  0
 20 21  2  0
 21 16  1  0
  2  3  2  0
  3 22  1  0
M  END
>  <Curated_InChIs>  (79) 
InChI=1S/C18H18O4/c1-11-16(20)12(2)18(22-3)15(17(11)21)14(19)10-9-13-7-5-4-6-8-13/h4-10,20-21H,1-3H3

>  <threshold>  (79) 
5

>  <pchembl>  (79) 
4.61

>  <Classification>  (79) 
0

>  <source>  (79) 
chembl_28

>  <SMILES>  (79) 
COc1c(C)c(O)c(C)c(O)c1C(=O)/C=C/c1ccccc1

>  <InChIKey>  (79) 
TZEQDSMFACWASC-MDZDMXLPSA-N

$$$$

     RDKit          2D

 21 23  0  0  0  0  0  0  0  0999 V2000
    3.7644  -17.9741    0.0000 C   0  0  0  0  0  0  0  0  0  0  0  0
    3.7632  -18.8022    0.0000 C   0  0  0  0  0  0  0  0  0  0  0  0
    4.4786  -19.2154    0.0000 C   0  0  0  0  0  0  0  0  0  0  0  0
    5.1958  -18.8017    0.0000 C   0  0  0  0  0  0  0  0  0  0  0  0
    5.1929  -17.9705    0.0000 C   0  0  0  0  0  0  0  0  0  0  0  0
    4.4768  -17.5609    0.0000 C   0  0  0  0  0  0  0  0  0  0  0  0
    4.4781  -16.7370    0.0000 O   0  0  0  0  0  0  0  0  0  0  0  0
    5.9091  -19.2139    0.0000 O   0  0  0  0  0  0  0  0  0  0  0  0
    3.0497  -19.2148    0.0000 C   0  0  0  0  0  0  0  0  0  0  0  0
    2.3346  -18.7996    0.0000 C   0  0  0  0  0  0  0  0  0  0  0  0
    1.6197  -19.2112    0.0000 C   0  0  0  0  0  0  0  0  0  0  0  0
    1.6186  -20.0378    0.0000 C   0  0  0  0  0  0  0  0  0  0  0  0
    2.3385  -20.4510    0.0000 C   0  0  0  0  0  0  0  0  0  0  0  0
    3.0504  -20.0371    0.0000 C   0  0  0  0  0  0  0  0  0  0  0  0
    3.7644  -20.4470    0.0000 C   0  0  0  0  0  0  0  0  0  0  0  0
    3.7646  -21.2740    0.0000 C   0  0  0  0  0  0  0  0  0  0  0  0
    4.4797  -21.6853    0.0000 C   0  0  0  0  0  0  0  0  0  0  0  0
    5.1950  -21.2710    0.0000 C   0  0  0  0  0  0  0  0  0  0  0  0
    5.1907  -20.4410    0.0000 C   0  0  0  0  0  0  0  0  0  0  0  0
    4.4750  -20.0334    0.0000 C   0  0  0  0  0  0  0  0  0  0  0  0
    5.9114  -21.6815    0.0000 O   0  0  0  0  0  0  0  0  0  0  0  0
 10 11  2  0
  5  6  1  0
 11 12  1  0
  6  1  2  0
 12 13  2  0
  1  2  1  0
 13 14  1  0
 14  9  2  0
  2  9  1  0
  6  7  1  0
  3  4  1  0
 15 16  2  0
  4  8  1  0
 16 17  1  0
 17 18  2  0
  4  5  2  0
 18 19  1  0
  9 10  1  0
 19 20  2  0
 20 15  1  0
 14 15  1  0
  2  3  2  0
 18 21  1  0
M  END
>  <Curated_InChIs>  (80) 
InChI=1S/C18H14O3/c19-14-7-5-12(6-8-14)17-3-1-2-4-18(17)13-9-15(20)11-16(21)10-13/h1-11,19-21H

>  <threshold>  (80) 
5

>  <pchembl>  (80) 
4.92

>  <Classification>  (80) 
0

>  <source>  (80) 
chembl_28

>  <SMILES>  (80) 
Oc1ccc(-c2ccccc2-c2cc(O)cc(O)c2)cc1

>  <InChIKey>  (80) 
UGGGRFWZAHTXBI-UHFFFAOYSA-N

$$$$

     RDKit          2D

 29 32  0  0  0  0  0  0  0  0999 V2000
   38.2167  -14.2967    0.0000 C   0  0  0  0  0  0  0  0  0  0  0  0
   38.2156  -15.1162    0.0000 C   0  0  0  0  0  0  0  0  0  0  0  0
   38.9236  -15.5252    0.0000 C   0  0  0  0  0  0  0  0  0  0  0  0
   39.6333  -15.1157    0.0000 C   0  0  0  0  0  0  0  0  0  0  0  0
   39.6305  -14.2931    0.0000 C   0  0  0  0  0  0  0  0  0  0  0  0
   38.9218  -13.8878    0.0000 C   0  0  0  0  0  0  0  0  0  0  0  0
   40.3416  -15.5232    0.0000 C   0  0  0  0  0  0  0  0  0  0  0  0
   40.3366  -13.8818    0.0000 N   0  0  0  0  0  0  0  0  0  0  0  0
   41.0840  -14.2089    0.0000 C   0  0  0  0  0  0  0  0  0  0  0  0
   41.6285  -13.5995    0.0000 N   0  0  0  0  0  0  0  0  0  0  0  0
   41.2172  -12.8933    0.0000 N   0  0  0  0  0  0  0  0  0  0  0  0
   40.4186  -13.0663    0.0000 N   0  0  0  0  0  0  0  0  0  0  0  0
   41.2580  -15.0073    0.0000 S   0  0  0  0  0  0  0  0  0  0  0  0
   42.0364  -15.2559    0.0000 C   0  0  0  0  0  0  0  0  0  0  0  0
   42.2104  -16.0544    0.0000 C   0  0  0  0  0  0  0  0  0  0  0  0
   42.9889  -16.3029    0.0000 N   0  0  0  0  0  0  0  0  0  0  0  0
   41.6059  -16.6042    0.0000 O   0  0  0  0  0  0  0  0  0  0  0  0
   43.1570  -17.1032    0.0000 C   0  0  0  0  0  0  0  0  0  0  0  0
   43.9315  -17.3526    0.0000 C   0  0  0  0  0  0  0  0  0  0  0  0
   44.5390  -16.8056    0.0000 N   0  0  0  0  0  0  0  0  0  0  0  0
   44.3668  -16.0058    0.0000 C   0  0  0  0  0  0  0  0  0  0  0  0
   43.5870  -15.7529    0.0000 C   0  0  0  0  0  0  0  0  0  0  0  0
   45.3166  -17.0571    0.0000 C   0  0  0  0  0  0  0  0  0  0  0  0
   45.4875  -17.8562    0.0000 C   0  0  0  0  0  0  0  0  0  0  0  0
   44.8787  -18.4003    0.0000 C   0  0  0  0  0  0  0  0  0  0  0  0
   45.0492  -19.1987    0.0000 C   0  0  0  0  0  0  0  0  0  0  0  0
   45.8274  -19.4509    0.0000 C   0  0  0  0  0  0  0  0  0  0  0  0
   46.4354  -18.8985    0.0000 C   0  0  0  0  0  0  0  0  0  0  0  0
   46.2618  -18.1021    0.0000 C   0  0  0  0  0  0  0  0  0  0  0  0
  1  2  2  0
  2  3  1  0
  3  4  2  0
  4  5  1  0
  5  6  2  0
  6  1  1  0
  4  7  1  0
  5  8  1  0
  8  9  1  0
  9 10  2  0
 10 11  1  0
 11 12  2  0
 12  8  1  0
  9 13  1  0
 13 14  1  0
 14 15  1  0
 15 16  1  0
 15 17  2  0
 16 18  1  0
 16 22  1  0
 18 19  1  0
 19 20  1  0
 20 21  1  0
 21 22  1  0
 20 23  1  0
 23 24  1  0
 24 25  2  0
 25 26  1  0
 26 27  2  0
 27 28  1  0
 28 29  2  0
 29 24  1  0
M  END
>  <Curated_InChIs>  (81) 
InChI=1S/C21H24N6OS/c1-17-7-5-6-10-19(17)27-21(22-23-24-27)29-16-20(28)26-13-11-25(12-14-26)15-18-8-3-2-4-9-18/h2-10H,11-16H2,1H3

>  <threshold>  (81) 
5

>  <pchembl>  (81) 
4.58

>  <Classification>  (81) 
0

>  <source>  (81) 
chembl_28

>  <SMILES>  (81) 
Cc1ccccc1-n1nnnc1SCC(=O)N1CCN(Cc2ccccc2)CC1

>  <InChIKey>  (81) 
UHTFXBGCVLAXPN-UHFFFAOYSA-N

$$$$

     RDKit          2D

 37 42  0  0  0  0  0  0  0  0999 V2000
   16.3655  -15.0436    0.0000 C   0  0  0  0  0  0  0  0  0  0  0  0
   15.7912  -14.7102    0.0000 C   0  0  0  0  0  0  0  0  0  0  0  0
   15.7912  -13.8781    0.0000 C   0  0  0  0  0  0  0  0  0  0  0  0
   15.0733  -13.4640    0.0000 C   0  0  0  0  0  0  0  0  0  0  0  0
   15.0733  -12.6325    0.0000 C   0  0  0  0  0  0  0  0  0  0  0  0
   14.3573  -12.2168    0.0000 C   0  0  0  0  0  0  0  0  0  0  0  0
   14.3573  -11.3847    0.0000 N   0  0  0  0  0  0  0  0  0  0  0  0
   15.0724  -10.9714    0.0000 C   0  0  0  0  0  0  0  0  0  0  0  0
   15.0724  -10.1399    0.0000 C   0  0  0  0  0  0  0  0  0  0  0  0
   14.3536   -9.7257    0.0000 N   0  0  0  0  0  0  0  0  0  0  0  0
   14.3536   -8.8977    0.0000 C   0  0  0  0  0  0  0  0  0  0  0  0
   13.6310   -8.4806    0.0000 C   0  0  0  0  0  0  0  0  0  0  0  0
   13.6310   -7.6526    0.0000 O   0  0  0  0  0  0  0  0  0  0  0  0
   12.9024   -7.2396    0.0000 C   0  0  0  0  0  0  0  0  0  0  0  0
   12.1870   -7.6563    0.0000 C   0  0  0  0  0  0  0  0  0  0  0  0
   11.4680   -7.2457    0.0000 C   0  0  0  0  0  0  0  0  0  0  0  0
   11.4680   -6.4142    0.0000 C   0  0  0  0  0  0  0  0  0  0  0  0
   12.1793   -5.9975    0.0000 C   0  0  0  0  0  0  0  0  0  0  0  0
   12.1793   -5.1660    0.0000 C   0  0  0  0  0  0  0  0  0  0  0  0
   12.8906   -4.7493    0.0000 C   0  0  0  0  0  0  0  0  0  0  0  0
   13.6136   -5.1599    0.0000 C   0  0  0  0  0  0  0  0  0  0  0  0
   13.6136   -5.9914    0.0000 C   0  0  0  0  0  0  0  0  0  0  0  0
   12.9024   -6.4081    0.0000 C   0  0  0  0  0  0  0  0  0  0  0  0
   13.6344  -10.1431    0.0000 C   0  0  0  0  0  0  0  0  0  0  0  0
   13.6344  -10.9705    0.0000 C   0  0  0  0  0  0  0  0  0  0  0  0
   13.6372  -12.6325    0.0000 N   0  0  0  0  0  0  0  0  0  0  0  0
   12.8471  -12.3742    0.0000 N   0  0  0  0  0  0  0  0  0  0  0  0
   12.3575  -13.0483    0.0000 C   0  0  0  0  0  0  0  0  0  0  0  0
   11.5333  -13.1329    0.0000 N   0  0  0  0  0  0  0  0  0  0  0  0
   11.1977  -13.8921    0.0000 C   0  0  0  0  0  0  0  0  0  0  0  0
   10.5352  -13.9610    0.0000 C   0  0  0  0  0  0  0  0  0  0  0  0
   11.6832  -14.5620    0.0000 C   0  0  0  0  0  0  0  0  0  0  0  0
   12.5082  -14.4769    0.0000 C   0  0  0  0  0  0  0  0  0  0  0  0
   12.9017  -15.0152    0.0000 C   0  0  0  0  0  0  0  0  0  0  0  0
   12.8471  -13.7182    0.0000 C   0  0  0  0  0  0  0  0  0  0  0  0
   13.6372  -13.4640    0.0000 C   0  0  0  0  0  0  0  0  0  0  0  0
   14.3573  -13.8798    0.0000 N   0  0  0  0  0  0  0  0  0  0  0  0
  1  2  1  0
  2  3  1  0
  3  4  1  0
  4  5  1  0
  5  6  2  0
  6  7  1  0
  7  8  1  0
  8  9  1  0
  9 10  1  0
 10 11  1  0
 11 12  1  0
 12 13  1  0
 13 14  1  0
 14 15  2  0
 15 16  1  0
 16 17  2  0
 17 18  1  0
 18 19  2  0
 19 20  1  0
 20 21  2  0
 21 22  1  0
 22 23  2  0
 23 14  1  0
 23 18  1  0
 10 24  1  0
 24 25  1  0
 25  7  1  0
  6 26  1  0
 26 27  1  0
 27 28  2  0
 28 29  1  0
 29 30  2  0
 30 31  1  0
 30 32  1  0
 32 33  2  0
 33 34  1  0
 33 35  1  0
 35 28  1  0
 35 36  2  0
 36 26  1  0
 36 37  1  0
 37  4  2  0
M  END
>  <Curated_InChIs>  (82) 
InChI=1S/C30H34N6O/c1-4-8-24-20-27(36-30(32-24)28-21(2)19-22(3)31-29(28)33-36)35-15-13-34(14-16-35)17-18-37-26-12-7-10-23-9-5-6-11-25(23)26/h5-7,9-12,19-20H,4,8,13-18H2,1-3H3

>  <threshold>  (82) 
5

>  <pchembl>  (82) 
4.84

>  <Classification>  (82) 
0

>  <source>  (82) 
chembl_28

>  <SMILES>  (82) 
CCCc1cc(N2CCN(CCOc3cccc4ccccc34)CC2)n2nc3nc(C)cc(C)c3c2n1

>  <InChIKey>  (82) 
UQNSXMUYSZHSLG-UHFFFAOYSA-N

$$$$

     RDKit          2D

 23 24  0  0  0  0  0  0  0  0999 V2000
   14.2930   -5.7994    0.0000 C   0  0  0  0  0  0  0  0  0  0  0  0
   14.2918   -6.6266    0.0000 C   0  0  0  0  0  0  0  0  0  0  0  0
   15.0066   -7.0395    0.0000 C   0  0  0  0  0  0  0  0  0  0  0  0
   15.7229   -6.6262    0.0000 C   0  0  0  0  0  0  0  0  0  0  0  0
   15.7200   -5.7957    0.0000 C   0  0  0  0  0  0  0  0  0  0  0  0
   15.0048   -5.3867    0.0000 C   0  0  0  0  0  0  0  0  0  0  0  0
   16.4330   -5.3806    0.0000 C   0  0  0  0  0  0  0  0  0  0  0  0
   17.1489   -5.7903    0.0000 N   0  0  0  0  0  0  0  0  0  0  0  0
   17.8617   -5.3753    0.0000 C   0  0  0  0  0  0  0  0  0  0  0  0
   18.5761   -5.7884    0.0000 C   0  0  0  0  0  0  0  0  0  0  0  0
   19.2884   -5.3740    0.0000 C   0  0  0  0  0  0  0  0  0  0  0  0
   19.2858   -4.5481    0.0000 C   0  0  0  0  0  0  0  0  0  0  0  0
   18.5648   -4.1386    0.0000 C   0  0  0  0  0  0  0  0  0  0  0  0
   17.8554   -4.5553    0.0000 C   0  0  0  0  0  0  0  0  0  0  0  0
   16.4298   -4.5556    0.0000 O   0  0  0  0  0  0  0  0  0  0  0  0
   15.0064   -7.8644    0.0000 O   0  0  0  0  0  0  0  0  0  0  0  0
   13.5772   -7.0386    0.0000 O   0  0  0  0  0  0  0  0  0  0  0  0
   13.5785   -5.3871    0.0000 O   0  0  0  0  0  0  0  0  0  0  0  0
   18.5802   -6.6169    0.0000 N   0  0  0  0  0  0  0  0  0  0  0  0
   19.2951   -7.0285    0.0000 O   0  0  0  0  0  0  0  0  0  0  0  0
   17.8662   -7.0303    0.0000 O   0  0  0  0  0  0  0  0  0  0  0  0
   13.5783   -4.5621    0.0000 C   0  0  0  0  0  0  0  0  0  0  0  0
   19.9980   -4.1321    0.0000 Br  0  0  0  0  0  0  0  0  0  0  0  0
  5  6  1  0
 11 12  2  0
  6  1  2  0
 12 13  1  0
  1  2  1  0
 13 14  2  0
 14  9  1  0
  5  7  1  0
  7 15  2  0
  3  4  1  0
  3 16  1  0
  7  8  1  0
  2 17  1  0
  1 18  1  0
  8  9  1  0
  4  5  2  0
  9 10  2  0
 19 20  2  0
 19 21  1  0
 10 19  1  0
  2  3  2  0
 18 22  1  0
 10 11  1  0
 12 23  1  0
M  CHG  2  19   1  21  -1
M  END
>  <Curated_InChIs>  (83) 
InChI=1S/C14H11BrN2O6/c1-23-12-5-7(4-11(18)13(12)19)14(20)16-9-3-2-8(15)6-10(9)17(21)22/h2-6,18-19H,1H3,(H,16,20)

>  <threshold>  (83) 
5

>  <pchembl>  (83) 
4.42

>  <Classification>  (83) 
0

>  <source>  (83) 
chembl_28

>  <SMILES>  (83) 
COc1cc(C(=O)Nc2ccc(Br)cc2[N+](=O)[O-])cc(O)c1O

>  <InChIKey>  (83) 
UTDYISBJQQHLHF-UHFFFAOYSA-N

$$$$

     RDKit          2D

 41 45  0  0  0  0  0  0  0  0999 V2000
    1.6412   -4.9939    0.0000 C   0  0  0  0  0  0  0  0  0  0  0  0
    1.6401   -5.8176    0.0000 C   0  0  0  0  0  0  0  0  0  0  0  0
    2.3522   -6.2265    0.0000 C   0  0  0  0  0  0  0  0  0  0  0  0
    3.0660   -5.8171    0.0000 C   0  0  0  0  0  0  0  0  0  0  0  0
    3.0632   -4.9903    0.0000 C   0  0  0  0  0  0  0  0  0  0  0  0
    2.3505   -4.5809    0.0000 C   0  0  0  0  0  0  0  0  0  0  0  0
    3.7785   -6.2246    0.0000 C   0  0  0  0  0  0  0  0  0  0  0  0
    3.7798   -7.0459    0.0000 O   0  0  0  0  0  0  0  0  0  0  0  0
    4.4856   -5.8149    0.0000 N   0  0  0  0  0  0  0  0  0  0  0  0
    5.1981   -6.2224    0.0000 C   0  0  0  0  0  0  0  0  0  0  0  0
    3.7735   -4.5749    0.0000 O   0  0  0  0  0  0  0  0  0  0  0  0
    4.4827   -4.9850    0.0000 C   0  0  0  0  0  0  0  0  0  0  0  0
    5.1930   -4.5696    0.0000 C   0  0  0  0  0  0  0  0  0  0  0  0
    5.9424   -4.9062    0.0000 C   0  0  0  0  0  0  0  0  0  0  0  0
    6.4911   -4.2928    0.0000 N   0  0  0  0  0  0  0  0  0  0  0  0
    6.0756   -3.5824    0.0000 N   0  0  0  0  0  0  0  0  0  0  0  0
    5.2729   -3.7554    0.0000 N   0  0  0  0  0  0  0  0  0  0  0  0
    7.3093   -4.2923    0.0000 C   0  0  0  0  0  0  0  0  0  0  0  0
    7.7175   -3.5803    0.0000 C   0  0  0  0  0  0  0  0  0  0  0  0
    8.5389   -3.5798    0.0000 N   0  0  0  0  0  0  0  0  0  0  0  0
    8.9486   -4.2978    0.0000 C   0  0  0  0  0  0  0  0  0  0  0  0
    9.7664   -4.2993    0.0000 C   0  0  0  0  0  0  0  0  0  0  0  0
    8.9467   -2.8724    0.0000 C   0  0  0  0  0  0  0  0  0  0  0  0
    9.7706   -2.8756    0.0000 C   0  0  0  0  0  0  0  0  0  0  0  0
   10.1755   -3.5905    0.0000 C   0  0  0  0  0  0  0  0  0  0  0  0
   10.9957   -3.5942    0.0000 C   0  0  0  0  0  0  0  0  0  0  0  0
   11.4121   -2.8838    0.0000 C   0  0  0  0  0  0  0  0  0  0  0  0
   10.9981   -2.1682    0.0000 C   0  0  0  0  0  0  0  0  0  0  0  0
   10.1792   -2.1680    0.0000 C   0  0  0  0  0  0  0  0  0  0  0  0
   11.4112   -1.4566    0.0000 O   0  0  0  0  0  0  0  0  0  0  0  0
   12.2334   -2.8861    0.0000 O   0  0  0  0  0  0  0  0  0  0  0  0
   12.6400   -3.5991    0.0000 C   0  0  0  0  0  0  0  0  0  0  0  0
   12.2325   -1.4571    0.0000 C   0  0  0  0  0  0  0  0  0  0  0  0
    5.1947   -7.0421    0.0000 C   0  0  0  0  0  0  0  0  0  0  0  0
    5.9064   -7.4537    0.0000 C   0  0  0  0  0  0  0  0  0  0  0  0
    6.6185   -7.0398    0.0000 C   0  0  0  0  0  0  0  0  0  0  0  0
    6.6146   -6.2142    0.0000 C   0  0  0  0  0  0  0  0  0  0  0  0
    5.9024   -5.8105    0.0000 C   0  0  0  0  0  0  0  0  0  0  0  0
    4.7793   -7.7468    0.0000 N   0  0  0  0  0  0  0  0  0  0  0  0
    5.1819   -8.4589    0.0000 O   0  0  0  0  0  0  0  0  0  0  0  0
    3.9614   -7.7394    0.0000 O   0  0  0  0  0  0  0  0  0  0  0  0
  1  2  2  0
  2  3  1  0
  3  4  2  0
  4  5  1  0
  5  6  2  0
  6  1  1  0
  4  7  1  0
  7  8  2  0
  7  9  1  0
  9 10  1  0
  5 11  1  0
 11 12  1  0
 12 13  1  0
 13 14  2  0
 14 15  1  0
 15 16  1  0
 16 17  2  0
 17 13  1  0
 15 18  1  0
 18 19  1  0
 19 20  1  0
 20 21  1  0
 20 23  1  0
 21 22  1  0
 22 25  1  0
 24 23  1  0
 24 25  2  0
 25 26  1  0
 26 27  2  0
 27 28  1  0
 28 29  2  0
 29 24  1  0
 28 30  1  0
 27 31  1  0
 31 32  1  0
 30 33  1  0
 10 34  2  0
 34 35  1  0
 35 36  2  0
 36 37  1  0
 37 38  2  0
 38 10  1  0
 34 39  1  0
 39 40  2  0
 39 41  1  0
M  CHG  2  39   1  41  -1
M  END
>  <Curated_InChIs>  (84) 
InChI=1S/C29H30N6O6/c1-39-27-15-20-11-12-33(17-21(20)16-28(27)40-2)13-14-34-18-22(31-32-34)19-41-26-10-6-3-7-23(26)29(36)30-24-8-4-5-9-25(24)35(37)38/h3-10,15-16,18H,11-14,17,19H2,1-2H3,(H,30,36)

>  <threshold>  (84) 
5

>  <pchembl>  (84) 
4.57

>  <Classification>  (84) 
0

>  <source>  (84) 
chembl_28

>  <SMILES>  (84) 
COc1cc2c(cc1OC)CN(CCn1cc(COc3ccccc3C(=O)Nc3ccccc3[N+](=O)[O-])nn1)CC2

>  <InChIKey>  (84) 
VBQQZBNVTHYVHC-UHFFFAOYSA-N

$$$$

     RDKit          2D

 19 20  0  0  0  0  0  0  0  0999 V2000
   -5.0888   -6.8290    0.0000 C   0  0  0  0  0  0  0  0  0  0  0  0
   -5.0900   -7.6564    0.0000 C   0  0  0  0  0  0  0  0  0  0  0  0
   -4.3752   -8.0692    0.0000 C   0  0  0  0  0  0  0  0  0  0  0  0
   -3.6587   -7.6559    0.0000 C   0  0  0  0  0  0  0  0  0  0  0  0
   -3.6616   -6.8254    0.0000 C   0  0  0  0  0  0  0  0  0  0  0  0
   -4.3770   -6.4163    0.0000 C   0  0  0  0  0  0  0  0  0  0  0  0
   -2.9488   -6.4102    0.0000 C   0  0  0  0  0  0  0  0  0  0  0  0
   -2.2327   -6.8200    0.0000 C   0  0  0  0  0  0  0  0  0  0  0  0
   -1.5198   -6.4048    0.0000 C   0  0  0  0  0  0  0  0  0  0  0  0
   -0.8054   -6.8181    0.0000 C   0  0  0  0  0  0  0  0  0  0  0  0
   -0.0930   -6.4036    0.0000 C   0  0  0  0  0  0  0  0  0  0  0  0
   -0.0957   -5.5777    0.0000 C   0  0  0  0  0  0  0  0  0  0  0  0
   -0.8167   -5.1681    0.0000 C   0  0  0  0  0  0  0  0  0  0  0  0
   -1.5262   -5.5849    0.0000 C   0  0  0  0  0  0  0  0  0  0  0  0
   -5.8034   -6.4167    0.0000 O   0  0  0  0  0  0  0  0  0  0  0  0
   -4.3754   -8.8943    0.0000 O   0  0  0  0  0  0  0  0  0  0  0  0
    0.6166   -5.1615    0.0000 O   0  0  0  0  0  0  0  0  0  0  0  0
   -5.8036   -5.5917    0.0000 C   0  0  0  0  0  0  0  0  0  0  0  0
   -3.6610   -9.3068    0.0000 C   0  0  0  0  0  0  0  0  0  0  0  0
  4  5  2  0
  9 10  2  0
  2  3  2  0
 10 11  1  0
  5  6  1  0
 11 12  2  0
  6  1  2  0
 12 13  1  0
  1  2  1  0
 13 14  2  0
 14  9  1  0
  5  7  1  0
  1 15  1  0
  3  4  1  0
  3 16  1  0
  7  8  2  0
 12 17  1  0
 15 18  1  0
  8  9  1  0
 16 19  1  0
M  END
>  <Curated_InChIs>  (85) 
InChI=1S/C16H16O3/c1-18-15-9-13(10-16(11-15)19-2)4-3-12-5-7-14(17)8-6-12/h3-11,17H,1-2H3

>  <threshold>  (85) 
5

>  <pchembl>  (85) 
4.38

>  <Classification>  (85) 
0

>  <source>  (85) 
chembl_28

>  <SMILES>  (85) 
COc1cc(/C=C/c2ccc(O)cc2)cc(OC)c1

>  <InChIKey>  (85) 
VLEUZFDZJKSGMX-ONEGZZNKSA-N

$$$$

     RDKit          2D

 30 34  0  0  0  0  0  0  0  0999 V2000
   12.0666   -4.3212    0.0000 C   0  0  0  0  0  0  0  0  0  0  0  0
   12.0655   -5.1407    0.0000 C   0  0  0  0  0  0  0  0  0  0  0  0
   12.7735   -5.5497    0.0000 C   0  0  0  0  0  0  0  0  0  0  0  0
   12.7717   -3.9123    0.0000 C   0  0  0  0  0  0  0  0  0  0  0  0
   13.4803   -4.3176    0.0000 C   0  0  0  0  0  0  0  0  0  0  0  0
   13.4806   -5.1407    0.0000 C   0  0  0  0  0  0  0  0  0  0  0  0
   14.2636   -5.3949    0.0000 N   0  0  0  0  0  0  0  0  0  0  0  0
   14.2631   -4.0630    0.0000 C   0  0  0  0  0  0  0  0  0  0  0  0
   14.7473   -4.7301    0.0000 C   0  0  0  0  0  0  0  0  0  0  0  0
   15.5626   -4.6448    0.0000 C   0  0  0  0  0  0  0  0  0  0  0  0
   15.9001   -3.8935    0.0000 N   0  0  0  0  0  0  0  0  0  0  0  0
   15.4159   -3.2264    0.0000 C   0  0  0  0  0  0  0  0  0  0  0  0
   14.5943   -3.3106    0.0000 C   0  0  0  0  0  0  0  0  0  0  0  0
   16.7130   -3.8096    0.0000 C   0  0  0  0  0  0  0  0  0  0  0  0
   17.1921   -4.4716    0.0000 O   0  0  0  0  0  0  0  0  0  0  0  0
   17.0468   -3.0636    0.0000 C   0  0  0  0  0  0  0  0  0  0  0  0
   17.8599   -2.9838    0.0000 C   0  0  0  0  0  0  0  0  0  0  0  0
   18.1937   -2.2387    0.0000 C   0  0  0  0  0  0  0  0  0  0  0  0
   17.7144   -1.5757    0.0000 C   0  0  0  0  0  0  0  0  0  0  0  0
   16.8976   -1.6627    0.0000 C   0  0  0  0  0  0  0  0  0  0  0  0
   16.5675   -2.4079    0.0000 C   0  0  0  0  0  0  0  0  0  0  0  0
   16.0426   -5.3035    0.0000 C   0  0  0  0  0  0  0  0  0  0  0  0
   15.7071   -6.0499    0.0000 C   0  0  0  0  0  0  0  0  0  0  0  0
   16.1855   -6.7115    0.0000 C   0  0  0  0  0  0  0  0  0  0  0  0
   16.9993   -6.6280    0.0000 C   0  0  0  0  0  0  0  0  0  0  0  0
   17.3324   -5.8771    0.0000 C   0  0  0  0  0  0  0  0  0  0  0  0
   16.8520   -5.2186    0.0000 C   0  0  0  0  0  0  0  0  0  0  0  0
   18.0472   -0.8294    0.0000 O   0  0  0  0  0  0  0  0  0  0  0  0
   18.8600   -0.7444    0.0000 C   0  0  0  0  0  0  0  0  0  0  0  0
   15.8513   -7.4573    0.0000 Cl  0  0  0  0  0  0  0  0  0  0  0  0
  1  2  2  0
  2  3  1  0
  3  6  2  0
  5  4  2  0
  4  1  1  0
  5  6  1  0
  6  7  1  0
  7  9  1  0
  8  5  1  0
  8  9  2  0
  8 13  1  0
  9 10  1  0
 10 11  1  0
 11 12  1  0
 12 13  1  0
 11 14  1  0
 14 15  2  0
 14 16  1  0
 16 17  2  0
 17 18  1  0
 18 19  2  0
 19 20  1  0
 20 21  2  0
 21 16  1  0
 22 23  2  0
 23 24  1  0
 24 25  2  0
 25 26  1  0
 26 27  2  0
 27 22  1  0
 10 22  1  0
 19 28  1  0
 28 29  1  0
 24 30  1  0
M  END
>  <Curated_InChIs>  (86) 
InChI=1S/C25H21ClN2O2/c1-30-19-11-9-16(10-12-19)25(29)28-14-13-21-20-7-2-3-8-22(20)27-23(21)24(28)17-5-4-6-18(26)15-17/h2-12,15,24,27H,13-14H2,1H3

>  <threshold>  (86) 
5

>  <pchembl>  (86) 
4.72

>  <Classification>  (86) 
0

>  <source>  (86) 
chembl_28

>  <SMILES>  (86) 
COc1ccc(C(=O)N2CCc3c([nH]c4ccccc34)C2c2cccc(Cl)c2)cc1

>  <InChIKey>  (86) 
VTHHNXQVCOMVAW-UHFFFAOYSA-N

$$$$

     RDKit          2D

 33 35  0  0  0  0  0  0  0  0999 V2000
    4.1299   -3.3224    0.0000 C   0  0  0  0  0  0  0  0  0  0  0  0
    4.1288   -4.1419    0.0000 C   0  0  0  0  0  0  0  0  0  0  0  0
    4.8368   -4.5509    0.0000 C   0  0  0  0  0  0  0  0  0  0  0  0
    5.5465   -4.1414    0.0000 C   0  0  0  0  0  0  0  0  0  0  0  0
    5.5437   -3.3188    0.0000 C   0  0  0  0  0  0  0  0  0  0  0  0
    4.8351   -2.9135    0.0000 C   0  0  0  0  0  0  0  0  0  0  0  0
    6.2498   -2.9075    0.0000 C   0  0  0  0  0  0  0  0  0  0  0  0
    6.9591   -3.3134    0.0000 C   0  0  0  0  0  0  0  0  0  0  0  0
    7.6652   -2.9022    0.0000 C   0  0  0  0  0  0  0  0  0  0  0  0
    8.3745   -3.3081    0.0000 C   0  0  0  0  0  0  0  0  0  0  0  0
    8.3745   -4.1242    0.0000 C   0  0  0  0  0  0  0  0  0  0  0  0
    9.0829   -4.5300    0.0000 C   0  0  0  0  0  0  0  0  0  0  0  0
    9.7900   -4.1187    0.0000 C   0  0  0  0  0  0  0  0  0  0  0  0
    9.7843   -3.2973    0.0000 C   0  0  0  0  0  0  0  0  0  0  0  0
    9.0753   -2.8952    0.0000 C   0  0  0  0  0  0  0  0  0  0  0  0
    6.2548   -4.5489    0.0000 O   0  0  0  0  0  0  0  0  0  0  0  0
    3.4208   -4.5500    0.0000 O   0  0  0  0  0  0  0  0  0  0  0  0
    3.4221   -2.9140    0.0000 C   0  0  0  0  0  0  0  0  0  0  0  0
    4.8326   -2.0963    0.0000 O   0  0  0  0  0  0  0  0  0  0  0  0
    6.2561   -5.3661    0.0000 C   0  0  0  0  0  0  0  0  0  0  0  0
    6.2468   -2.0903    0.0000 O   0  0  0  0  0  0  0  0  0  0  0  0
    3.4201   -5.3671    0.0000 C   0  0  0  0  0  0  0  0  0  0  0  0
    2.7145   -3.3227    0.0000 C   0  0  0  0  0  0  0  0  0  0  0  0
    2.0067   -2.9143    0.0000 C   0  0  0  0  0  0  0  0  0  0  0  0
    1.2991   -3.3231    0.0000 C   0  0  0  0  0  0  0  0  0  0  0  0
    2.0065   -2.0971    0.0000 C   0  0  0  0  0  0  0  0  0  0  0  0
   10.4894   -2.8859    0.0000 N   0  0  0  0  0  0  0  0  0  0  0  0
   11.1999   -3.2915    0.0000 C   0  0  0  0  0  0  0  0  0  0  0  0
   11.9025   -2.8813    0.0000 C   0  0  0  0  0  0  0  0  0  0  0  0
   11.9008   -2.0637    0.0000 N   0  0  0  0  0  0  0  0  0  0  0  0
   11.1903   -1.6581    0.0000 C   0  0  0  0  0  0  0  0  0  0  0  0
   10.4815   -2.0701    0.0000 C   0  0  0  0  0  0  0  0  0  0  0  0
   12.6071   -1.6527    0.0000 C   0  0  0  0  0  0  0  0  0  0  0  0
  1  2  2  0
  2  3  1  0
  3  4  2  0
  4  5  1  0
  5  6  2  0
  6  1  1  0
  5  7  1  0
  7  8  1  0
  8  9  2  0
  9 10  1  0
 10 11  2  0
 11 12  1  0
 12 13  2  0
 13 14  1  0
 14 15  2  0
 15 10  1  0
  4 16  1  0
  2 17  1  0
  1 18  1  0
  6 19  1  0
 16 20  1  0
  7 21  2  0
 17 22  1  0
 18 23  1  0
 23 24  2  3
 24 25  1  0
 24 26  1  0
 27 28  1  0
 27 32  1  0
 28 29  1  0
 29 30  1  0
 30 31  1  0
 31 32  1  0
 14 27  1  0
 30 33  1  0
M  END
>  <Curated_InChIs>  (87) 
InChI=1S/C27H34N2O4/c1-19(2)9-11-22-24(32-4)18-25(33-5)26(27(22)31)23(30)12-10-20-7-6-8-21(17-20)29-15-13-28(3)14-16-29/h6-10,12,17-18,31H,11,13-16H2,1-5H3

>  <threshold>  (87) 
5

>  <pchembl>  (87) 
4.63

>  <Classification>  (87) 
0

>  <source>  (87) 
chembl_28

>  <SMILES>  (87) 
COc1cc(OC)c(C(=O)/C=C/c2cccc(N3CCN(C)CC3)c2)c(O)c1CC=C(C)C

>  <InChIKey>  (87) 
VUASIIQURRWUFE-ZRDIBKRKSA-N

$$$$

     RDKit          2D

 21 22  0  0  0  0  0  0  0  0999 V2000
   11.7277   -3.8208    0.0000 C   0  0  0  0  0  0  0  0  0  0  0  0
   11.7266   -4.6482    0.0000 C   0  0  0  0  0  0  0  0  0  0  0  0
   12.4414   -5.0610    0.0000 C   0  0  0  0  0  0  0  0  0  0  0  0
   13.1578   -4.6477    0.0000 C   0  0  0  0  0  0  0  0  0  0  0  0
   13.1550   -3.8172    0.0000 C   0  0  0  0  0  0  0  0  0  0  0  0
   12.4396   -3.4080    0.0000 C   0  0  0  0  0  0  0  0  0  0  0  0
   13.8679   -3.4020    0.0000 C   0  0  0  0  0  0  0  0  0  0  0  0
   14.5839   -3.8118    0.0000 C   0  0  0  0  0  0  0  0  0  0  0  0
   15.2968   -3.3966    0.0000 C   0  0  0  0  0  0  0  0  0  0  0  0
   16.0112   -3.8098    0.0000 C   0  0  0  0  0  0  0  0  0  0  0  0
   16.7237   -3.3953    0.0000 C   0  0  0  0  0  0  0  0  0  0  0  0
   16.7210   -2.5694    0.0000 C   0  0  0  0  0  0  0  0  0  0  0  0
   16.0000   -2.1598    0.0000 C   0  0  0  0  0  0  0  0  0  0  0  0
   15.2905   -2.5767    0.0000 C   0  0  0  0  0  0  0  0  0  0  0  0
   15.9939   -1.3348    0.0000 O   0  0  0  0  0  0  0  0  0  0  0  0
   17.4395   -3.8055    0.0000 O   0  0  0  0  0  0  0  0  0  0  0  0
   16.7054   -0.9245    0.0000 C   0  0  0  0  0  0  0  0  0  0  0  0
   18.1526   -3.3906    0.0000 C   0  0  0  0  0  0  0  0  0  0  0  0
   12.4371   -2.5830    0.0000 O   0  0  0  0  0  0  0  0  0  0  0  0
   11.0139   -3.4082    0.0000 O   0  0  0  0  0  0  0  0  0  0  0  0
   10.2995   -3.8209    0.0000 C   0  0  0  0  0  0  0  0  0  0  0  0
  2  3  2  0
 10 11  2  0
  5  6  1  0
 11 12  1  0
  6  1  2  0
 12 13  2  0
  1  2  1  0
 13 14  1  0
 14  9  2  0
  5  7  1  0
 13 15  1  0
  3  4  1  0
 11 16  1  0
  7  8  2  0
 15 17  1  0
 16 18  1  0
  8  9  1  0
  6 19  1  0
  4  5  2  0
  9 10  1  0
 20 21  1  0
  1 20  1  0
M  END
>  <Curated_InChIs>  (88) 
InChI=1S/C17H18O4/c1-19-14-9-12(10-15(11-14)20-2)7-8-13-5-4-6-16(21-3)17(13)18/h4-11,18H,1-3H3

>  <threshold>  (88) 
5

>  <pchembl>  (88) 
4.47

>  <Classification>  (88) 
0

>  <source>  (88) 
chembl_28

>  <SMILES>  (88) 
COc1cc(/C=C/c2cccc(OC)c2O)cc(OC)c1

>  <InChIKey>  (88) 
VWIJWYTVLATTPJ-BQYQJAHWSA-N

$$$$

     RDKit          2D

 23 25  0  0  0  0  0  0  0  0999 V2000
   -2.8473  -12.1125    0.0000 C   0  0  0  0  0  0  0  0  0  0  0  0
   -2.8484  -12.9398    0.0000 C   0  0  0  0  0  0  0  0  0  0  0  0
   -2.1336  -13.3527    0.0000 C   0  0  0  0  0  0  0  0  0  0  0  0
   -1.4172  -12.9394    0.0000 C   0  0  0  0  0  0  0  0  0  0  0  0
   -1.4200  -12.1088    0.0000 C   0  0  0  0  0  0  0  0  0  0  0  0
   -2.1354  -11.6997    0.0000 C   0  0  0  0  0  0  0  0  0  0  0  0
   -2.1341  -10.8765    0.0000 O   0  0  0  0  0  0  0  0  0  0  0  0
   -2.8498  -10.4661    0.0000 C   0  0  0  0  0  0  0  0  0  0  0  0
   -0.7045  -13.3512    0.0000 O   0  0  0  0  0  0  0  0  0  0  0  0
    0.0094  -12.9376    0.0000 C   0  0  0  0  0  0  0  0  0  0  0  0
   -3.5613  -13.3520    0.0000 C   0  0  0  0  0  0  0  0  0  0  0  0
   -4.2757  -12.9373    0.0000 C   0  0  0  0  0  0  0  0  0  0  0  0
   -4.9900  -13.3485    0.0000 C   0  0  0  0  0  0  0  0  0  0  0  0
   -4.9911  -14.1744    0.0000 C   0  0  0  0  0  0  0  0  0  0  0  0
   -4.2720  -14.5873    0.0000 C   0  0  0  0  0  0  0  0  0  0  0  0
   -3.5606  -14.1737    0.0000 C   0  0  0  0  0  0  0  0  0  0  0  0
   -2.8473  -14.5833    0.0000 C   0  0  0  0  0  0  0  0  0  0  0  0
   -2.8470  -15.4094    0.0000 C   0  0  0  0  0  0  0  0  0  0  0  0
   -2.1326  -15.8204    0.0000 C   0  0  0  0  0  0  0  0  0  0  0  0
   -1.4179  -15.4065    0.0000 C   0  0  0  0  0  0  0  0  0  0  0  0
   -1.4222  -14.5772    0.0000 C   0  0  0  0  0  0  0  0  0  0  0  0
   -2.1372  -14.1699    0.0000 C   0  0  0  0  0  0  0  0  0  0  0  0
   -0.7021  -15.8166    0.0000 O   0  0  0  0  0  0  0  0  0  0  0  0
 11 12  2  0
  6  1  2  0
 12 13  1  0
  1  2  1  0
 13 14  2  0
  3  4  1  0
 14 15  1  0
  7  8  1  0
 15 16  2  0
 16 11  1  0
  2 11  1  0
  6  7  1  0
 17 18  2  0
  4  5  2  0
 18 19  1  0
  9 10  1  0
 19 20  2  0
  4  9  1  0
 20 21  1  0
  2  3  2  0
 21 22  2  0
 22 17  1  0
 16 17  1  0
  5  6  1  0
 20 23  1  0
M  END
>  <Curated_InChIs>  (89) 
InChI=1S/C20H18O3/c1-22-17-11-15(12-18(13-17)23-2)20-6-4-3-5-19(20)14-7-9-16(21)10-8-14/h3-13,21H,1-2H3

>  <threshold>  (89) 
5

>  <pchembl>  (89) 
4.55

>  <Classification>  (89) 
0

>  <source>  (89) 
chembl_28

>  <SMILES>  (89) 
COc1cc(OC)cc(-c2ccccc2-c2ccc(O)cc2)c1

>  <InChIKey>  (89) 
WBVVLROKTBXXTP-UHFFFAOYSA-N

$$$$

     RDKit          2D

 32 33  0  0  0  0  0  0  0  0999 V2000
   16.5240  -24.6519    0.0000 C   0  0  0  0  0  0  0  0  0  0  0  0
   16.5229  -25.4714    0.0000 C   0  0  0  0  0  0  0  0  0  0  0  0
   17.2309  -25.8804    0.0000 C   0  0  0  0  0  0  0  0  0  0  0  0
   17.9406  -25.4710    0.0000 C   0  0  0  0  0  0  0  0  0  0  0  0
   17.9377  -24.6483    0.0000 C   0  0  0  0  0  0  0  0  0  0  0  0
   17.2291  -24.2430    0.0000 C   0  0  0  0  0  0  0  0  0  0  0  0
   18.6439  -24.2370    0.0000 C   0  0  0  0  0  0  0  0  0  0  0  0
   19.3531  -24.6430    0.0000 C   0  0  0  0  0  0  0  0  0  0  0  0
   20.0593  -24.2317    0.0000 C   0  0  0  0  0  0  0  0  0  0  0  0
   20.7686  -24.6376    0.0000 C   0  0  0  0  0  0  0  0  0  0  0  0
   20.7685  -25.4537    0.0000 C   0  0  0  0  0  0  0  0  0  0  0  0
   21.4769  -25.8595    0.0000 C   0  0  0  0  0  0  0  0  0  0  0  0
   22.1841  -25.4482    0.0000 C   0  0  0  0  0  0  0  0  0  0  0  0
   22.1784  -24.6268    0.0000 C   0  0  0  0  0  0  0  0  0  0  0  0
   21.4694  -24.2247    0.0000 C   0  0  0  0  0  0  0  0  0  0  0  0
   18.6489  -25.8784    0.0000 O   0  0  0  0  0  0  0  0  0  0  0  0
   15.8148  -25.8795    0.0000 O   0  0  0  0  0  0  0  0  0  0  0  0
   15.8162  -24.2435    0.0000 C   0  0  0  0  0  0  0  0  0  0  0  0
   17.2267  -23.4258    0.0000 O   0  0  0  0  0  0  0  0  0  0  0  0
   18.6502  -26.6956    0.0000 C   0  0  0  0  0  0  0  0  0  0  0  0
   18.6408  -23.4199    0.0000 O   0  0  0  0  0  0  0  0  0  0  0  0
   15.8142  -26.6967    0.0000 C   0  0  0  0  0  0  0  0  0  0  0  0
   15.1086  -24.6522    0.0000 C   0  0  0  0  0  0  0  0  0  0  0  0
   14.4008  -24.2438    0.0000 C   0  0  0  0  0  0  0  0  0  0  0  0
   13.6932  -24.6526    0.0000 C   0  0  0  0  0  0  0  0  0  0  0  0
   14.4006  -23.4266    0.0000 C   0  0  0  0  0  0  0  0  0  0  0  0
   22.8831  -24.2131    0.0000 O   0  0  0  0  0  0  0  0  0  0  0  0
   23.5937  -24.6165    0.0000 C   0  0  0  0  0  0  0  0  0  0  0  0
   22.8939  -25.8532    0.0000 O   0  0  0  0  0  0  0  0  0  0  0  0
   22.8980  -26.6704    0.0000 C   0  0  0  0  0  0  0  0  0  0  0  0
   21.4796  -26.6767    0.0000 O   0  0  0  0  0  0  0  0  0  0  0  0
   20.7733  -27.0876    0.0000 C   0  0  0  0  0  0  0  0  0  0  0  0
  1  2  2  0
  2  3  1  0
  3  4  2  0
  4  5  1  0
  5  6  2  0
  6  1  1  0
  5  7  1  0
  7  8  1  0
  8  9  2  0
  9 10  1  0
 10 11  2  0
 11 12  1  0
 12 13  2  0
 13 14  1  0
 14 15  2  0
 15 10  1  0
  4 16  1  0
  2 17  1  0
  1 18  1  0
  6 19  1  0
 16 20  1  0
  7 21  2  0
 17 22  1  0
 18 23  1  0
 23 24  2  3
 24 25  1  0
 24 26  1  0
 14 27  1  0
 27 28  1  0
 13 29  1  0
 29 30  1  0
 12 31  1  0
 31 32  1  0
M  END
>  <Curated_InChIs>  (90) 
InChI=1S/C25H30O7/c1-15(2)8-10-17-19(28-3)14-20(29-4)23(24(17)27)18(26)11-9-16-12-21(30-5)25(32-7)22(13-16)31-6/h8-9,11-14,27H,10H2,1-7H3

>  <threshold>  (90) 
5

>  <pchembl>  (90) 
4.58

>  <Classification>  (90) 
0

>  <source>  (90) 
chembl_28

>  <SMILES>  (90) 
COc1cc(OC)c(C(=O)/C=C/c2cc(OC)c(OC)c(OC)c2)c(O)c1CC=C(C)C

>  <InChIKey>  (90) 
WPYKEEIZSXOWNW-PKNBQFBNSA-N

$$$$

     RDKit          2D

 26 29  0  0  0  0  0  0  0  0999 V2000
    4.2868   -4.1250    0.0000 Cl  0  0  0  0  0  0  0  0  0  0  0  0
    3.5724   -3.7125    0.0000 C   0  0  0  0  0  0  0  0  0  0  0  0
    2.8579   -4.1250    0.0000 C   0  0  0  0  0  0  0  0  0  0  0  0
    2.1434   -3.7125    0.0000 C   0  0  0  0  0  0  0  0  0  0  0  0
    2.1434   -2.8875    0.0000 C   0  0  0  0  0  0  0  0  0  0  0  0
    1.4289   -2.4750    0.0000 C   0  0  0  0  0  0  0  0  0  0  0  0
    1.4289   -1.6500    0.0000 C   0  0  0  0  0  0  0  0  0  0  0  0
    0.7145   -1.2375    0.0000 N   0  0  0  0  0  0  0  0  0  0  0  0
    0.7145   -0.4125    0.0000 N   0  0  0  0  0  0  0  0  0  0  0  0
    0.0000    0.0000    0.0000 C   0  0  0  0  0  0  0  0  0  0  0  0
   -0.6816   -0.4647    0.0000 C   0  0  0  0  0  0  0  0  0  0  0  0
   -1.4700   -0.2216    0.0000 C   0  0  0  0  0  0  0  0  0  0  0  0
   -1.7714    0.5464    0.0000 C   0  0  0  0  0  0  0  0  0  0  0  0
   -1.3589    1.2609    0.0000 N   0  0  0  0  0  0  0  0  0  0  0  0
   -0.5431    1.3838    0.0000 C   0  0  0  0  0  0  0  0  0  0  0  0
    0.0617    0.8227    0.0000 C   0  0  0  0  0  0  0  0  0  0  0  0
    1.4289    0.0000    0.0000 C   0  0  0  0  0  0  0  0  0  0  0  0
    1.4289    0.8250    0.0000 O   0  0  0  0  0  0  0  0  0  0  0  0
    2.1434   -0.4125    0.0000 C   0  0  0  0  0  0  0  0  0  0  0  0
    2.8579    0.0000    0.0000 C   0  0  0  0  0  0  0  0  0  0  0  0
    3.5724   -0.4125    0.0000 C   0  0  0  0  0  0  0  0  0  0  0  0
    3.5724   -1.2375    0.0000 C   0  0  0  0  0  0  0  0  0  0  0  0
    2.8579   -1.6500    0.0000 C   0  0  0  0  0  0  0  0  0  0  0  0
    2.1434   -1.2375    0.0000 C   0  0  0  0  0  0  0  0  0  0  0  0
    2.8579   -2.4750    0.0000 C   0  0  0  0  0  0  0  0  0  0  0  0
    3.5724   -2.8875    0.0000 C   0  0  0  0  0  0  0  0  0  0  0  0
  1  2  1  0
  2  3  2  0
  3  4  1  0
  4  5  2  0
  5  6  1  0
  6  7  1  0
  7  8  2  0
  8  9  1  0
  9 10  1  0
 10 11  1  0
 11 12  1  0
 12 13  1  0
 13 14  1  0
 14 15  1  0
 15 16  1  0
 10 16  1  0
  9 17  1  0
 17 18  2  0
 17 19  1  0
 19 20  2  0
 20 21  1  0
 21 22  2  0
 22 23  1  0
 23 24  2  0
  7 24  1  0
 19 24  1  0
  5 25  1  0
 25 26  2  0
  2 26  1  0
M  END
>  <Curated_InChIs>  (91) 
InChI=1S/C21H22ClN3O/c22-16-9-7-15(8-10-16)14-20-18-5-1-2-6-19(18)21(26)25(24-20)17-4-3-12-23-13-11-17/h1-2,5-10,17,23H,3-4,11-14H2

>  <threshold>  (91) 
5

>  <pchembl>  (91) 
4.38, 4.93

>  <Classification>  (91) 
0

>  <source>  (91) 
chembl_28

>  <SMILES>  (91) 
O=c1c2ccccc2c(Cc2ccc(Cl)cc2)nn1C1CCCNCC1

>  <InChIKey>  (91) 
WRYCMIFVXDQIKN-UHFFFAOYSA-N

$$$$

     RDKit          2D

 39 41  0  0  0  0  0  0  0  0999 V2000
   19.4832   -3.5040    0.0000 C   0  0  0  0  0  0  0  0  0  0  0  0
   19.4821   -4.3235    0.0000 C   0  0  0  0  0  0  0  0  0  0  0  0
   20.1901   -4.7325    0.0000 C   0  0  0  0  0  0  0  0  0  0  0  0
   20.8998   -4.3230    0.0000 C   0  0  0  0  0  0  0  0  0  0  0  0
   20.8970   -3.5004    0.0000 C   0  0  0  0  0  0  0  0  0  0  0  0
   20.1883   -3.0951    0.0000 C   0  0  0  0  0  0  0  0  0  0  0  0
   21.6031   -3.0891    0.0000 C   0  0  0  0  0  0  0  0  0  0  0  0
   22.3124   -3.4950    0.0000 C   0  0  0  0  0  0  0  0  0  0  0  0
   23.0185   -3.0838    0.0000 C   0  0  0  0  0  0  0  0  0  0  0  0
   23.7278   -3.4897    0.0000 C   0  0  0  0  0  0  0  0  0  0  0  0
   23.7278   -4.3058    0.0000 C   0  0  0  0  0  0  0  0  0  0  0  0
   24.4362   -4.7116    0.0000 C   0  0  0  0  0  0  0  0  0  0  0  0
   25.1433   -4.3003    0.0000 C   0  0  0  0  0  0  0  0  0  0  0  0
   25.1376   -3.4789    0.0000 C   0  0  0  0  0  0  0  0  0  0  0  0
   24.4286   -3.0768    0.0000 C   0  0  0  0  0  0  0  0  0  0  0  0
   21.6081   -4.7305    0.0000 O   0  0  0  0  0  0  0  0  0  0  0  0
   18.7741   -4.7316    0.0000 O   0  0  0  0  0  0  0  0  0  0  0  0
   18.7754   -3.0956    0.0000 C   0  0  0  0  0  0  0  0  0  0  0  0
   20.1859   -2.2779    0.0000 O   0  0  0  0  0  0  0  0  0  0  0  0
   21.6094   -5.5477    0.0000 C   0  0  0  0  0  0  0  0  0  0  0  0
   21.6000   -2.2719    0.0000 O   0  0  0  0  0  0  0  0  0  0  0  0
   18.7734   -5.5487    0.0000 C   0  0  0  0  0  0  0  0  0  0  0  0
   18.0678   -3.5043    0.0000 C   0  0  0  0  0  0  0  0  0  0  0  0
   17.3600   -3.0959    0.0000 C   0  0  0  0  0  0  0  0  0  0  0  0
   16.6524   -3.5047    0.0000 C   0  0  0  0  0  0  0  0  0  0  0  0
   17.3598   -2.2787    0.0000 C   0  0  0  0  0  0  0  0  0  0  0  0
   25.8427   -3.0675    0.0000 N   0  0  0  0  0  0  0  0  0  0  0  0
   26.5532   -3.4731    0.0000 C   0  0  0  0  0  0  0  0  0  0  0  0
   27.2558   -3.0629    0.0000 C   0  0  0  0  0  0  0  0  0  0  0  0
   27.2541   -2.2453    0.0000 N   0  0  0  0  0  0  0  0  0  0  0  0
   26.5435   -1.8397    0.0000 C   0  0  0  0  0  0  0  0  0  0  0  0
   25.8348   -2.2517    0.0000 C   0  0  0  0  0  0  0  0  0  0  0  0
   27.9603   -1.8343    0.0000 C   0  0  0  0  0  0  0  0  0  0  0  0
   28.6695   -2.2404    0.0000 O   0  0  0  0  0  0  0  0  0  0  0  0
   27.9575   -1.0171    0.0000 O   0  0  0  0  0  0  0  0  0  0  0  0
   29.3757   -1.8293    0.0000 C   0  0  0  0  0  0  0  0  0  0  0  0
   30.0849   -2.2354    0.0000 C   0  0  0  0  0  0  0  0  0  0  0  0
   29.3729   -1.0121    0.0000 C   0  0  0  0  0  0  0  0  0  0  0  0
   30.0792   -1.4156    0.0000 C   0  0  0  0  0  0  0  0  0  0  0  0
  1  2  2  0
  2  3  1  0
  3  4  2  0
  4  5  1  0
  5  6  2  0
  6  1  1  0
  5  7  1  0
  7  8  1  0
  8  9  2  0
  9 10  1  0
 10 11  2  0
 11 12  1  0
 12 13  2  0
 13 14  1  0
 14 15  2  0
 15 10  1  0
  4 16  1  0
  2 17  1  0
  1 18  1  0
  6 19  1  0
 16 20  1  0
  7 21  2  0
 17 22  1  0
 18 23  1  0
 23 24  2  3
 24 25  1  0
 24 26  1  0
 27 28  1  0
 27 32  1  0
 28 29  1  0
 29 30  1  0
 30 31  1  0
 31 32  1  0
 14 27  1  0
 30 33  1  0
 33 34  1  0
 33 35  2  0
 34 36  1  0
 36 37  1  0
 36 38  1  0
 36 39  1  0
M  END
>  <Curated_InChIs>  (92) 
InChI=1S/C31H40N2O6/c1-21(2)11-13-24-26(37-6)20-27(38-7)28(29(24)35)25(34)14-12-22-9-8-10-23(19-22)32-15-17-33(18-16-32)30(36)39-31(3,4)5/h8-12,14,19-20,35H,13,15-18H2,1-7H3

>  <threshold>  (92) 
5

>  <pchembl>  (92) 
4.7

>  <Classification>  (92) 
0

>  <source>  (92) 
chembl_28

>  <SMILES>  (92) 
COc1cc(OC)c(C(=O)/C=C/c2cccc(N3CCN(C(=O)OC(C)(C)C)CC3)c2)c(O)c1CC=C(C)C

>  <InChIKey>  (92) 
WTACYPJKTWYNSJ-WYMLVPIESA-N

$$$$

     RDKit          2D

 29 32  0  0  0  0  0  0  0  0999 V2000
   -4.3882  -12.4814    0.0000 C   0  0  0  0  0  0  0  0  0  0  0  0
   -4.3895  -13.3091    0.0000 C   0  0  0  0  0  0  0  0  0  0  0  0
   -3.6764  -13.7220    0.0000 C   0  0  0  0  0  0  0  0  0  0  0  0
   -2.9570  -13.3086    0.0000 C   0  0  0  0  0  0  0  0  0  0  0  0
   -3.6784  -12.0686    0.0000 C   0  0  0  0  0  0  0  0  0  0  0  0
   -2.2421  -13.7205    0.0000 C   0  0  0  0  0  0  0  0  0  0  0  0
   -1.5280  -13.3073    0.0000 C   0  0  0  0  0  0  0  0  0  0  0  0
   -0.8131  -13.7191    0.0000 C   0  0  0  0  0  0  0  0  0  0  0  0
   -0.8177  -14.5452    0.0000 C   0  0  0  0  0  0  0  0  0  0  0  0
   -0.1036  -14.9571    0.0000 C   0  0  0  0  0  0  0  0  0  0  0  0
    0.6115  -14.5438    0.0000 C   0  0  0  0  0  0  0  0  0  0  0  0
    0.6081  -13.7144    0.0000 C   0  0  0  0  0  0  0  0  0  0  0  0
   -0.1065  -13.3064    0.0000 C   0  0  0  0  0  0  0  0  0  0  0  0
   -2.9702  -12.4769    0.0000 C   0  0  0  0  0  0  0  0  0  0  0  0
   -3.6800  -11.2435    0.0000 O   0  0  0  0  0  0  0  0  0  0  0  0
   -2.9663  -10.8296    0.0000 C   0  0  0  0  0  0  0  0  0  0  0  0
   -0.1106  -12.4813    0.0000 O   0  0  0  0  0  0  0  0  0  0  0  0
    0.6019  -12.0653    0.0000 C   0  0  0  0  0  0  0  0  0  0  0  0
    1.3185  -12.4743    0.0000 C   0  0  0  0  0  0  0  0  0  0  0  0
    2.0310  -12.0582    0.0000 N   0  0  0  0  0  0  0  0  0  0  0  0
    2.7445  -12.4682    0.0000 C   0  0  0  0  0  0  0  0  0  0  0  0
    3.4549  -12.0557    0.0000 C   0  0  0  0  0  0  0  0  0  0  0  0
    2.0221  -11.2333    0.0000 C   0  0  0  0  0  0  0  0  0  0  0  0
    2.7387  -10.8191    0.0000 C   0  0  0  0  0  0  0  0  0  0  0  0
    3.4526  -11.2307    0.0000 C   0  0  0  0  0  0  0  0  0  0  0  0
    4.1640  -10.8184    0.0000 C   0  0  0  0  0  0  0  0  0  0  0  0
    4.1626   -9.9946    0.0000 C   0  0  0  0  0  0  0  0  0  0  0  0
    3.4439   -9.5848    0.0000 C   0  0  0  0  0  0  0  0  0  0  0  0
    2.7356   -9.9994    0.0000 C   0  0  0  0  0  0  0  0  0  0  0  0
  5 14  1  0
  6  7  1  0
  5 15  1  0
  3  4  1  0
 15 16  1  0
  7  8  1  0
 13 17  1  0
  4 14  2  0
 17 18  1  0
  8  9  2  0
 18 19  1  0
 19 20  1  0
 20 21  1  0
  9 10  1  0
  5  1  2  0
 10 11  2  0
 20 23  1  0
 21 22  1  0
 22 25  1  0
 24 23  1  0
  2  3  2  0
 11 12  1  0
 24 25  2  0
  4  6  1  0
 25 26  1  0
 12 13  2  0
 26 27  2  0
 13  8  1  0
 27 28  1  0
  1  2  1  0
 28 29  2  0
 29 24  1  0
M  END
>  <Curated_InChIs>  (93) 
InChI=1S/C26H29NO2/c1-28-25-11-6-7-21(19-25)13-14-23-9-4-5-12-26(23)29-18-17-27-16-15-22-8-2-3-10-24(22)20-27/h2-12,19H,13-18,20H2,1H3

>  <threshold>  (93) 
5

>  <pchembl>  (93) 
4.92

>  <Classification>  (93) 
0

>  <source>  (93) 
chembl_28

>  <SMILES>  (93) 
COc1cccc(CCc2ccccc2OCCN2CCc3ccccc3C2)c1

>  <InChIKey>  (93) 
WUPKYOOSVMVCQT-UHFFFAOYSA-N

$$$$

     RDKit          2D

 37 40  0  0  0  0  0  0  0  0999 V2000
    7.2955   -9.3151    0.0000 C   0  0  0  0  0  0  0  0  0  0  0  0
    7.2944  -10.1347    0.0000 C   0  0  0  0  0  0  0  0  0  0  0  0
    8.0024  -10.5436    0.0000 C   0  0  0  0  0  0  0  0  0  0  0  0
    8.7121  -10.1342    0.0000 C   0  0  0  0  0  0  0  0  0  0  0  0
    8.7093   -9.3115    0.0000 C   0  0  0  0  0  0  0  0  0  0  0  0
    8.0006   -8.9063    0.0000 C   0  0  0  0  0  0  0  0  0  0  0  0
    6.5877   -8.9067    0.0000 O   0  0  0  0  0  0  0  0  0  0  0  0
    9.4154   -8.9003    0.0000 C   0  0  0  0  0  0  0  0  0  0  0  0
   10.1247   -9.3062    0.0000 C   0  0  0  0  0  0  0  0  0  0  0  0
    9.4123   -8.0831    0.0000 O   0  0  0  0  0  0  0  0  0  0  0  0
   10.8308   -8.8949    0.0000 C   0  0  0  0  0  0  0  0  0  0  0  0
   11.5401   -9.3009    0.0000 C   0  0  0  0  0  0  0  0  0  0  0  0
    5.8801   -9.3155    0.0000 C   0  0  0  0  0  0  0  0  0  0  0  0
    5.1723   -8.9070    0.0000 C   0  0  0  0  0  0  0  0  0  0  0  0
    4.4647   -9.3158    0.0000 N   0  0  0  0  0  0  0  0  0  0  0  0
    5.1721   -8.0898    0.0000 O   0  0  0  0  0  0  0  0  0  0  0  0
    3.7569   -8.9074    0.0000 C   0  0  0  0  0  0  0  0  0  0  0  0
   11.5401  -10.1169    0.0000 C   0  0  0  0  0  0  0  0  0  0  0  0
   12.2485  -10.5228    0.0000 C   0  0  0  0  0  0  0  0  0  0  0  0
   12.9556  -10.1114    0.0000 C   0  0  0  0  0  0  0  0  0  0  0  0
   12.9499   -9.2900    0.0000 C   0  0  0  0  0  0  0  0  0  0  0  0
   12.2409   -8.8879    0.0000 C   0  0  0  0  0  0  0  0  0  0  0  0
    3.7605   -8.0899    0.0000 C   0  0  0  0  0  0  0  0  0  0  0  0
    3.0536   -7.6816    0.0000 C   0  0  0  0  0  0  0  0  0  0  0  0
    3.0554   -9.3165    0.0000 C   0  0  0  0  0  0  0  0  0  0  0  0
    2.3478   -8.9118    0.0000 C   0  0  0  0  0  0  0  0  0  0  0  0
    2.3439   -8.0866    0.0000 C   0  0  0  0  0  0  0  0  0  0  0  0
    1.5579   -7.8354    0.0000 C   0  0  0  0  0  0  0  0  0  0  0  0
    1.0760   -8.5053    0.0000 O   0  0  0  0  0  0  0  0  0  0  0  0
    1.5642   -9.1705    0.0000 C   0  0  0  0  0  0  0  0  0  0  0  0
    1.3017   -7.0594    0.0000 O   0  0  0  0  0  0  0  0  0  0  0  0
   13.6654  -10.5164    0.0000 O   0  0  0  0  0  0  0  0  0  0  0  0
   13.6696  -11.3336    0.0000 C   0  0  0  0  0  0  0  0  0  0  0  0
   13.6546   -8.8763    0.0000 O   0  0  0  0  0  0  0  0  0  0  0  0
   14.3653   -9.2797    0.0000 C   0  0  0  0  0  0  0  0  0  0  0  0
   12.2511  -11.3399    0.0000 O   0  0  0  0  0  0  0  0  0  0  0  0
   11.5448  -11.7509    0.0000 C   0  0  0  0  0  0  0  0  0  0  0  0
  1  2  2  0
  2  3  1  0
  3  4  2  0
  4  5  1  0
  5  6  2  0
  6  1  1  0
  1  7  1  0
  5  8  1  0
  8  9  1  0
  8 10  2  0
  9 11  2  0
 11 12  1  0
  7 13  1  0
 13 14  1  0
 14 15  1  0
 14 16  2  0
 15 17  1  0
 12 18  2  0
 18 19  1  0
 19 20  2  0
 20 21  1  0
 21 22  2  0
 22 12  1  0
 17 23  2  0
 23 24  1  0
 24 27  2  0
 26 25  2  0
 25 17  1  0
 26 27  1  0
 27 28  1  0
 28 29  1  0
 29 30  1  0
 30 26  1  0
 28 31  2  0
 20 32  1  0
 32 33  1  0
 21 34  1  0
 34 35  1  0
 19 36  1  0
 36 37  1  0
M  END
>  <Curated_InChIs>  (94) 
InChI=1S/C28H25NO8/c1-33-24-11-17(12-25(34-2)27(24)35-3)7-10-23(30)18-5-4-6-21(14-18)36-16-26(31)29-20-8-9-22-19(13-20)15-37-28(22)32/h4-14H,15-16H2,1-3H3,(H,29,31)

>  <threshold>  (94) 
5

>  <pchembl>  (94) 
4.93

>  <Classification>  (94) 
0

>  <source>  (94) 
chembl_28

>  <SMILES>  (94) 
COc1cc(/C=C/C(=O)c2cccc(OCC(=O)Nc3ccc4c(c3)COC4=O)c2)cc(OC)c1OC

>  <InChIKey>  (94) 
XCVSZUBQCQESAH-JXMROGBWSA-N

$$$$

     RDKit          2D

 48 50  0  0  0  0  0  0  0  0999 V2000
   45.4656   -3.3802    0.0000 C   0  0  0  0  0  0  0  0  0  0  0  0
   45.0611   -4.0901    0.0000 C   0  0  0  0  0  0  0  0  0  0  0  0
   45.8781   -4.0854    0.0000 C   0  0  0  0  0  0  0  0  0  0  0  0
   43.0876   -4.9106    0.0000 C   0  0  0  0  0  0  0  0  0  0  0  0
   43.6628   -3.5117    0.0000 C   0  0  0  0  0  0  0  0  0  0  0  0
   43.6629   -5.4857    0.0000 C   0  0  0  0  0  0  0  0  0  0  0  0
   44.4824   -5.4857    0.0000 C   0  0  0  0  0  0  0  0  0  0  0  0
   45.0617   -4.9106    0.0000 C   0  0  0  0  0  0  0  0  0  0  0  0
   44.4824   -3.5116    0.0000 C   0  0  0  0  0  0  0  0  0  0  0  0
   40.4221   -3.9209    0.0000 C   0  0  0  0  0  0  0  0  0  0  0  0
   40.9090   -3.2622    0.0000 C   0  0  0  0  0  0  0  0  0  0  0  0
   40.9022   -4.5917    0.0000 C   0  0  0  0  0  0  0  0  0  0  0  0
   40.4980   -5.3024    0.0000 O   0  0  0  0  0  0  0  0  0  0  0  0
   41.2710   -2.8075    0.0000 O   0  0  0  0  0  0  0  0  0  0  0  0
   41.6885   -4.3369    0.0000 C   0  0  0  0  0  0  0  0  0  0  0  0
   41.6886   -3.5172    0.0000 C   0  0  0  0  0  0  0  0  0  0  0  0
   42.2651   -2.9406    0.0000 C   0  0  0  0  0  0  0  0  0  0  0  0
   42.2653   -4.9136    0.0000 C   0  0  0  0  0  0  0  0  0  0  0  0
   43.6615   -4.3369    0.0000 C   0  0  0  0  0  0  0  0  0  0  0  0
   43.0848   -2.9405    0.0000 C   0  0  0  0  0  0  0  0  0  0  0  0
   43.3975   -2.1855    0.0000 C   0  0  0  0  0  0  0  0  0  0  0  0
   45.8163   -5.2243    0.0000 O   0  0  0  0  0  0  0  0  0  0  0  0
   43.3502   -6.2407    0.0000 O   0  0  0  0  0  0  0  0  0  0  0  0
   43.7620   -6.9468    0.0000 C   0  0  0  0  0  0  0  0  0  0  0  0
   43.3567   -7.6564    0.0000 C   0  0  0  0  0  0  0  0  0  0  0  0
   44.5792   -6.9430    0.0000 O   0  0  0  0  0  0  0  0  0  0  0  0
   44.9013   -6.1870    0.0000 O   0  0  0  0  0  0  0  0  0  0  0  0
   45.7184   -6.1751    0.0000 C   0  0  0  0  0  0  0  0  0  0  0  0
   46.1372   -6.8769    0.0000 C   0  0  0  0  0  0  0  0  0  0  0  0
   46.1167   -5.4616    0.0000 O   0  0  0  0  0  0  0  0  0  0  0  0
   39.6808   -5.3080    0.0000 C   0  0  0  0  0  0  0  0  0  0  0  0
   39.2770   -6.0184    0.0000 C   0  0  0  0  0  0  0  0  0  0  0  0
   39.2674   -4.6030    0.0000 O   0  0  0  0  0  0  0  0  0  0  0  0
   38.4617   -6.0205    0.0000 C   0  0  0  0  0  0  0  0  0  0  0  0
   38.0580   -6.7301    0.0000 C   0  0  0  0  0  0  0  0  0  0  0  0
   38.4714   -7.4360    0.0000 C   0  0  0  0  0  0  0  0  0  0  0  0
   39.2928   -7.4278    0.0000 C   0  0  0  0  0  0  0  0  0  0  0  0
   39.6928   -6.7176    0.0000 C   0  0  0  0  0  0  0  0  0  0  0  0
   41.9540   -5.6691    0.0000 O   0  0  0  0  0  0  0  0  0  0  0  0
   41.9527   -2.1851    0.0000 O   0  0  0  0  0  0  0  0  0  0  0  0
   42.3358   -1.4633    0.0000 C   0  0  0  0  0  0  0  0  0  0  0  0
   41.9023   -0.7706    0.0000 O   0  0  0  0  0  0  0  0  0  0  0  0
   43.1525   -1.4342    0.0000 C   0  0  0  0  0  0  0  0  0  0  0  0
   39.8401   -3.3389    0.0000 C   0  0  0  0  0  0  0  0  0  0  0  0
   39.7122   -4.3253    0.0000 O   0  0  0  0  0  0  0  0  0  0  0  0
   39.0023   -3.9167    0.0000 C   0  0  0  0  0  0  0  0  0  0  0  0
   39.0012   -3.0995    0.0000 O   0  0  0  0  0  0  0  0  0  0  0  0
   38.2951   -4.3263    0.0000 C   0  0  0  0  0  0  0  0  0  0  0  0
  2  1  1  0
  3  2  1  0
  4  6  1  0
  6  7  1  0
  7  8  1  0
  8  2  1  0
  2  9  1  0
  9  5  2  0
 16 11  1  0
 11 10  1  0
 10 12  1  0
 12 15  1  0
 12 13  1  1
 16 14  1  1
 15 16  1  0
 16 17  1  0
 15 18  1  1
 18  4  1  0
  4 19  2  0
  5 20  1  0
 20 17  1  0
 20 21  1  1
  8 22  2  0
  6 23  1  1
 23 24  1  0
 24 25  1  0
 24 26  2  0
  7 27  1  6
 27 28  1  0
 28 29  1  0
 28 30  2  0
 13 31  1  0
 31 32  1  0
 31 33  2  0
 32 34  2  0
 34 35  1  0
 35 36  2  0
 36 37  1  0
 37 38  2  0
 38 32  1  0
 18 39  1  6
 17 40  1  6
 40 41  1  0
 41 42  2  0
 41 43  1  0
 10 44  1  1
 10 45  1  0
 45 46  1  0
 46 47  2  0
 46 48  1  0
M  END
>  <Curated_InChIs>  (95) 
InChI=1S/C35H44O13/c1-18-15-16-33(7,8)29(41)28(45-21(4)37)27(44-20(3)36)19(2)26(40)25-31(47-32(42)24-13-11-10-12-14-24)34(9,48-23(6)39)17-35(25,43)30(18)46-22(5)38/h10-16,18,25-28,30-31,40,43H,2,17H2,1,3-9H3

>  <threshold>  (95) 
5

>  <pchembl>  (95) 
4.69

>  <Classification>  (95) 
0

>  <source>  (95) 
chembl_28

>  <SMILES>  (95) 
C=C1[C@H](OC(C)=O)[C@@H](OC(C)=O)C(=O)C(C)(C)/C=C/[C@H](C)[C@@H](OC(C)=O)[C@@]2(O)C[C@@](C)(OC(C)=O)[C@H](OC(=O)c3ccccc3)[C@@H]2[C@H]1O

>  <InChIKey>  (95) 
XTKYSUFGBHDBME-WWNHBMMRSA-N

$$$$

     RDKit          2D

 34 37  0  0  0  0  0  0  0  0999 V2000
   14.9614  -15.1423    0.0000 N   0  0  0  0  0  0  0  0  0  0  0  0
   14.9610  -15.9652    0.0000 C   0  0  0  0  0  0  0  0  0  0  0  0
   15.6722  -16.3761    0.0000 C   0  0  0  0  0  0  0  0  0  0  0  0
   16.3882  -15.9654    0.0000 N   0  0  0  0  0  0  0  0  0  0  0  0
   16.3883  -15.1395    0.0000 C   0  0  0  0  0  0  0  0  0  0  0  0
   15.6724  -14.7241    0.0000 C   0  0  0  0  0  0  0  0  0  0  0  0
   17.0982  -16.3754    0.0000 C   0  0  0  0  0  0  0  0  0  0  0  0
   17.0957  -17.2015    0.0000 C   0  0  0  0  0  0  0  0  0  0  0  0
   17.8087  -17.6149    0.0000 C   0  0  0  0  0  0  0  0  0  0  0  0
   18.5247  -17.2034    0.0000 C   0  0  0  0  0  0  0  0  0  0  0  0
   18.5233  -16.3743    0.0000 C   0  0  0  0  0  0  0  0  0  0  0  0
   17.8096  -15.9646    0.0000 C   0  0  0  0  0  0  0  0  0  0  0  0
    7.8265  -15.1565    0.0000 C   0  0  0  0  0  0  0  0  0  0  0  0
    7.8253  -15.9841    0.0000 C   0  0  0  0  0  0  0  0  0  0  0  0
    8.5381  -16.3971    0.0000 C   0  0  0  0  0  0  0  0  0  0  0  0
    9.2575  -15.9836    0.0000 C   0  0  0  0  0  0  0  0  0  0  0  0
    8.5362  -14.7438    0.0000 C   0  0  0  0  0  0  0  0  0  0  0  0
    9.9723  -16.3954    0.0000 C   0  0  0  0  0  0  0  0  0  0  0  0
   10.6864  -15.9823    0.0000 C   0  0  0  0  0  0  0  0  0  0  0  0
   11.4012  -16.3941    0.0000 C   0  0  0  0  0  0  0  0  0  0  0  0
   11.3966  -17.2202    0.0000 C   0  0  0  0  0  0  0  0  0  0  0  0
   12.1106  -17.6319    0.0000 C   0  0  0  0  0  0  0  0  0  0  0  0
   12.8257  -17.2186    0.0000 C   0  0  0  0  0  0  0  0  0  0  0  0
   12.8223  -16.3895    0.0000 C   0  0  0  0  0  0  0  0  0  0  0  0
   12.1076  -15.9814    0.0000 C   0  0  0  0  0  0  0  0  0  0  0  0
    9.2443  -15.1520    0.0000 C   0  0  0  0  0  0  0  0  0  0  0  0
    8.5346  -13.9188    0.0000 O   0  0  0  0  0  0  0  0  0  0  0  0
    9.2483  -13.5049    0.0000 C   0  0  0  0  0  0  0  0  0  0  0  0
   12.1036  -15.1564    0.0000 O   0  0  0  0  0  0  0  0  0  0  0  0
   12.8160  -14.7404    0.0000 C   0  0  0  0  0  0  0  0  0  0  0  0
   13.5325  -15.1494    0.0000 C   0  0  0  0  0  0  0  0  0  0  0  0
   14.2449  -14.7334    0.0000 C   0  0  0  0  0  0  0  0  0  0  0  0
   17.8087  -15.1396    0.0000 O   0  0  0  0  0  0  0  0  0  0  0  0
   18.5226  -14.7261    0.0000 C   0  0  0  0  0  0  0  0  0  0  0  0
  1  6  1  0
 17 13  2  0
  8  9  2  0
 16 18  1  0
  2  3  1  0
 18 19  1  0
  9 10  1  0
 19 20  1  0
  3  4  1  0
 20 21  2  0
 10 11  2  0
 21 22  1  0
  4  5  1  0
 22 23  2  0
 11 12  1  0
 23 24  1  0
 12  7  2  0
 24 25  2  0
 25 20  1  0
  4  7  1  0
 17 26  1  0
  5  6  1  0
 17 27  1  0
  1  2  1  0
 27 28  1  0
 13 14  1  0
 25 29  1  0
 29 30  1  0
 14 15  2  0
 30 31  1  0
  7  8  1  0
 31 32  1  0
 32  1  1  0
 15 16  1  0
 12 33  1  0
 16 26  2  0
 33 34  1  0
M  END
>  <Curated_InChIs>  (96) 
InChI=1S/C29H36N2O3/c1-32-26-11-7-9-24(23-26)15-16-25-10-3-5-13-28(25)34-22-8-17-30-18-20-31(21-19-30)27-12-4-6-14-29(27)33-2/h3-7,9-14,23H,8,15-22H2,1-2H3

>  <threshold>  (96) 
5

>  <pchembl>  (96) 
4.85

>  <Classification>  (96) 
0

>  <source>  (96) 
chembl_28

>  <SMILES>  (96) 
COc1cccc(CCc2ccccc2OCCCN2CCN(c3ccccc3OC)CC2)c1

>  <InChIKey>  (96) 
YALDYYSVNQBATO-UHFFFAOYSA-N

$$$$

     RDKit          2D

 23 25  0  0  0  0  0  0  0  0999 V2000
    0.9069    1.9042    0.0000 C   0  0  0  0  0  0  0  0  0  0  0  0
    0.9057    1.0768    0.0000 C   0  0  0  0  0  0  0  0  0  0  0  0
    1.6206    0.6640    0.0000 C   0  0  0  0  0  0  0  0  0  0  0  0
    2.3370    1.0773    0.0000 C   0  0  0  0  0  0  0  0  0  0  0  0
    2.3341    1.9078    0.0000 C   0  0  0  0  0  0  0  0  0  0  0  0
    1.6188    2.3170    0.0000 C   0  0  0  0  0  0  0  0  0  0  0  0
    1.6201    3.1402    0.0000 O   0  0  0  0  0  0  0  0  0  0  0  0
    0.9044    3.5506    0.0000 C   0  0  0  0  0  0  0  0  0  0  0  0
    3.0497    0.6655    0.0000 O   0  0  0  0  0  0  0  0  0  0  0  0
    3.7635    1.0791    0.0000 C   0  0  0  0  0  0  0  0  0  0  0  0
    0.1929    0.6646    0.0000 C   0  0  0  0  0  0  0  0  0  0  0  0
   -0.5216    1.0794    0.0000 C   0  0  0  0  0  0  0  0  0  0  0  0
   -1.2359    0.6682    0.0000 C   0  0  0  0  0  0  0  0  0  0  0  0
   -1.2370   -0.1577    0.0000 C   0  0  0  0  0  0  0  0  0  0  0  0
   -0.5178   -0.5706    0.0000 C   0  0  0  0  0  0  0  0  0  0  0  0
    0.1936   -0.1570    0.0000 C   0  0  0  0  0  0  0  0  0  0  0  0
   -1.9477   -0.5724    0.0000 C   0  0  0  0  0  0  0  0  0  0  0  0
   -2.6627   -0.1586    0.0000 C   0  0  0  0  0  0  0  0  0  0  0  0
   -3.3764   -0.5708    0.0000 C   0  0  0  0  0  0  0  0  0  0  0  0
   -3.3764   -1.3966    0.0000 C   0  0  0  0  0  0  0  0  0  0  0  0
   -2.6567   -1.8086    0.0000 C   0  0  0  0  0  0  0  0  0  0  0  0
   -1.9459   -1.3940    0.0000 C   0  0  0  0  0  0  0  0  0  0  0  0
   -4.0901   -1.8105    0.0000 O   0  0  0  0  0  0  0  0  0  0  0  0
 11 12  2  0
  6  1  2  0
 12 13  1  0
  1  2  1  0
 13 14  2  0
  3  4  1  0
 14 15  1  0
  7  8  1  0
 15 16  2  0
 16 11  1  0
  2 11  1  0
  6  7  1  0
 17 18  2  0
  4  5  2  0
 18 19  1  0
  9 10  1  0
 19 20  2  0
  4  9  1  0
 20 21  1  0
  2  3  2  0
 21 22  2  0
 22 17  1  0
 14 17  1  0
  5  6  1  0
 20 23  1  0
M  END
>  <Curated_InChIs>  (97) 
InChI=1S/C20H18O3/c1-22-19-11-17(12-20(13-19)23-2)16-5-3-14(4-6-16)15-7-9-18(21)10-8-15/h3-13,21H,1-2H3

>  <threshold>  (97) 
5

>  <pchembl>  (97) 
4.64

>  <Classification>  (97) 
0

>  <source>  (97) 
chembl_28

>  <SMILES>  (97) 
COc1cc(OC)cc(-c2ccc(-c3ccc(O)cc3)cc2)c1

>  <InChIKey>  (97) 
YFHSVEFGWHOYPM-UHFFFAOYSA-N

$$$$

     RDKit          2D

 22 21  0  0  0  0  0  0  0  0999 V2000
    4.5125   -4.3917    0.0000 C   0  0  0  0  0  0  0  0  0  0  0  0
    5.2250   -4.8042    0.0000 O   0  0  0  0  0  0  0  0  0  0  0  0
    3.7917   -4.8042    0.0000 C   0  0  0  0  0  0  0  0  0  0  0  0
    5.9417   -4.3917    0.0000 C   0  0  0  0  0  0  0  0  0  0  0  0
    6.6542   -4.8042    0.0000 C   0  0  0  0  0  0  0  0  0  0  0  0
    4.5125   -3.5667    0.0000 O   0  0  0  0  0  0  0  0  0  0  0  0
    7.3667   -4.3917    0.0000 O   0  0  0  0  0  0  0  0  0  0  0  0
    3.0792   -4.3917    0.0000 C   0  0  0  0  0  0  0  0  0  0  0  0
    5.9417   -3.5667    0.0000 C   0  0  0  0  0  0  0  0  0  0  0  0
    6.6542   -5.6292    0.0000 O   0  0  0  0  0  0  0  0  0  0  0  0
    3.0792   -3.5667    0.0000 O   0  0  0  0  0  0  0  0  0  0  0  0
    3.7917   -5.6292    0.0000 C   0  0  0  0  0  0  0  0  0  0  0  0
    2.3667   -4.8042    0.0000 C   0  0  0  0  0  0  0  0  0  0  0  0
    6.6542   -3.1542    0.0000 C   0  0  0  0  0  0  0  0  0  0  0  0
    5.2250   -3.1542    0.0000 C   0  0  0  0  0  0  0  0  0  0  0  0
    7.3667   -6.0417    0.0000 C   0  0  0  0  0  0  0  0  0  0  0  0
    1.6542   -4.3917    0.0000 C   0  0  0  0  0  0  0  0  0  0  0  0
   -1.1958   -4.3917    0.0000 C   0  0  0  0  0  0  0  0  0  0  0  0
   -0.4833   -4.8042    0.0000 C   0  0  0  0  0  0  0  0  0  0  0  0
    0.9417   -4.8042    0.0000 C   0  0  0  0  0  0  0  0  0  0  0  0
    0.2292   -4.3917    0.0000 C   0  0  0  0  0  0  0  0  0  0  0  0
   -1.9083   -4.8042    0.0000 C   0  0  0  0  0  0  0  0  0  0  0  0
  2  1  1  0
  3  1  1  0
  4  2  1  1
  5  4  1  0
  6  1  2  0
  7  5  2  0
  8  3  1  0
  4  9  1  0
 10  5  1  0
  8 11  1  1
  3 12  1  1
 13  8  1  0
 14  9  1  0
 15  9  1  0
 16 10  1  0
 17 13  1  0
 18 19  1  0
 19 21  1  0
 20 17  1  0
 21 20  1  0
 22 18  1  0
M  END
>  <Curated_InChIs>  (98) 
InChI=1S/C17H32O5/c1-6-7-8-9-10-11-14(18)13(4)16(19)22-15(12(2)3)17(20)21-5/h12-15,18H,6-11H2,1-5H3

>  <threshold>  (98) 
5

>  <pchembl>  (98) 
4.8

>  <Classification>  (98) 
0

>  <source>  (98) 
chembl_28

>  <SMILES>  (98) 
CCCCCCC[C@@H](O)[C@H](C)C(=O)O[C@H](C(=O)OC)C(C)C

>  <InChIKey>  (98) 
YHGSXGQBYCDWPQ-ZNMIVQPWSA-N

$$$$

     RDKit          2D

 30 31  0  0  0  0  0  0  0  0999 V2000
    4.5792   -4.9667    0.0000 C   0  0  0  0  0  0  0  0  0  0  0  0
    5.3000   -5.3792    0.0000 N   0  0  0  0  0  0  0  0  0  0  0  0
    6.0167   -4.9667    0.0000 C   0  0  0  0  0  0  0  0  0  0  0  0
    7.4500   -4.9667    0.0000 C   0  0  0  0  0  0  0  0  0  0  0  0
    6.7375   -5.3792    0.0000 C   0  0  0  0  0  0  0  0  0  0  0  0
    8.1667   -5.3792    0.0000 C   0  0  0  0  0  0  0  0  0  0  0  0
    3.8625   -5.3792    0.0000 O   0  0  0  0  0  0  0  0  0  0  0  0
    6.0167   -4.1292    0.0000 C   0  0  0  0  0  0  0  0  0  0  0  0
    4.5792   -4.1292    0.0000 O   0  0  0  0  0  0  0  0  0  0  0  0
    8.1667   -6.2042    0.0000 O   0  0  0  0  0  0  0  0  0  0  0  0
    6.7375   -6.2042    0.0000 O   0  0  0  0  0  0  0  0  0  0  0  0
    3.1500   -4.9667    0.0000 C   0  0  0  0  0  0  0  0  0  0  0  0
    6.0167   -6.6167    0.0000 C   0  0  0  0  0  0  0  0  0  0  0  0
    6.7292   -3.7250    0.0000 C   0  0  0  0  0  0  0  0  0  0  0  0
    8.8875   -4.9667    0.0000 O   0  0  0  0  0  0  0  0  0  0  0  0
    5.3000   -6.2042    0.0000 C   0  0  0  0  0  0  0  0  0  0  0  0
    2.4292   -5.3792    0.0000 C   0  0  0  0  0  0  0  0  0  0  0  0
    6.0167   -7.4417    0.0000 O   0  0  0  0  0  0  0  0  0  0  0  0
    7.4417   -4.1292    0.0000 C   0  0  0  0  0  0  0  0  0  0  0  0
    6.7292   -2.9042    0.0000 C   0  0  0  0  0  0  0  0  0  0  0  0
    9.6042   -5.3792    0.0000 C   0  0  0  0  0  0  0  0  0  0  0  0
    1.7125   -4.9667    0.0000 C   0  0  0  0  0  0  0  0  0  0  0  0
    2.4292   -6.2042    0.0000 C   0  0  0  0  0  0  0  0  0  0  0  0
    5.3042   -7.8542    0.0000 C   0  0  0  0  0  0  0  0  0  0  0  0
    1.0000   -5.3792    0.0000 C   0  0  0  0  0  0  0  0  0  0  0  0
    1.7125   -6.6167    0.0000 C   0  0  0  0  0  0  0  0  0  0  0  0
    8.1542   -3.7250    0.0000 C   0  0  0  0  0  0  0  0  0  0  0  0
    7.4417   -2.4875    0.0000 C   0  0  0  0  0  0  0  0  0  0  0  0
    8.1542   -2.9000    0.0000 C   0  0  0  0  0  0  0  0  0  0  0  0
    1.0000   -6.2042    0.0000 C   0  0  0  0  0  0  0  0  0  0  0  0
  2  1  1  0
  3  2  1  0
  5  4  1  1
  5  3  1  0
  6  4  1  0
  7  1  1  0
  3  8  1  1
  9  1  2  0
 10  6  2  0
  5 11  1  0
 12  7  1  0
 13 11  1  0
 14  8  1  0
 15  6  1  0
 16  2  1  0
 17 12  1  0
 18 13  1  0
 19 14  2  0
 20 14  1  0
 21 15  1  0
 22 17  2  0
 23 17  1  0
 24 18  1  0
 25 22  1  0
 26 23  2  0
 27 19  1  0
 28 20  2  0
 29 28  1  0
 30 26  1  0
 25 30  2  0
 29 27  2  0
M  END
>  <Curated_InChIs>  (99) 
InChI=1S/C23H29NO6/c1-24(23(26)29-16-19-12-8-5-9-13-19)20(14-18-10-6-4-7-11-18)21(30-17-27-2)15-22(25)28-3/h4-13,20-21H,14-17H2,1-3H3

>  <threshold>  (99) 
5

>  <pchembl>  (99) 
4.83

>  <Classification>  (99) 
0

>  <source>  (99) 
chembl_28

>  <SMILES>  (99) 
COCO[C@H](CC(=O)OC)[C@H](Cc1ccccc1)N(C)C(=O)OCc1ccccc1

>  <InChIKey>  (99) 
YIUQMBBMDDQCEB-LEWJYISDSA-N

$$$$

     RDKit          2D

 24 26  0  0  0  0  0  0  0  0999 V2000
    3.7902  -12.0541    0.0000 C   0  0  0  0  0  0  0  0  0  0  0  0
    3.7891  -12.8815    0.0000 C   0  0  0  0  0  0  0  0  0  0  0  0
    4.5039  -13.2944    0.0000 C   0  0  0  0  0  0  0  0  0  0  0  0
    5.2203  -12.8810    0.0000 C   0  0  0  0  0  0  0  0  0  0  0  0
    5.2175  -12.0505    0.0000 C   0  0  0  0  0  0  0  0  0  0  0  0
    4.5021  -11.6414    0.0000 C   0  0  0  0  0  0  0  0  0  0  0  0
    4.5034  -10.8181    0.0000 O   0  0  0  0  0  0  0  0  0  0  0  0
    3.7877  -10.4078    0.0000 C   0  0  0  0  0  0  0  0  0  0  0  0
    5.9330  -13.2929    0.0000 O   0  0  0  0  0  0  0  0  0  0  0  0
    6.6469  -12.8792    0.0000 C   0  0  0  0  0  0  0  0  0  0  0  0
    3.0762  -13.2937    0.0000 C   0  0  0  0  0  0  0  0  0  0  0  0
    2.3618  -12.8789    0.0000 C   0  0  0  0  0  0  0  0  0  0  0  0
    1.6475  -13.2902    0.0000 C   0  0  0  0  0  0  0  0  0  0  0  0
    1.6464  -14.1160    0.0000 C   0  0  0  0  0  0  0  0  0  0  0  0
    2.3655  -14.5290    0.0000 C   0  0  0  0  0  0  0  0  0  0  0  0
    3.0769  -14.1153    0.0000 C   0  0  0  0  0  0  0  0  0  0  0  0
    3.7902  -14.5250    0.0000 C   0  0  0  0  0  0  0  0  0  0  0  0
    3.7905  -15.3511    0.0000 C   0  0  0  0  0  0  0  0  0  0  0  0
    4.5049  -15.7621    0.0000 C   0  0  0  0  0  0  0  0  0  0  0  0
    5.2196  -15.3482    0.0000 C   0  0  0  0  0  0  0  0  0  0  0  0
    5.2153  -14.5189    0.0000 C   0  0  0  0  0  0  0  0  0  0  0  0
    4.5003  -14.1116    0.0000 C   0  0  0  0  0  0  0  0  0  0  0  0
    5.9354  -15.7583    0.0000 O   0  0  0  0  0  0  0  0  0  0  0  0
    6.6485  -15.3435    0.0000 C   0  0  0  0  0  0  0  0  0  0  0  0
  6  1  2  0
 12 13  2  0
  1  2  1  0
 13 14  1  0
  3  4  1  0
 14 15  2  0
  7  8  1  0
 15 16  1  0
 16 11  2  0
  2 11  1  0
  6  7  1  0
 17 18  2  0
  4  5  2  0
 18 19  1  0
  9 10  1  0
 19 20  2  0
  4  9  1  0
 20 21  1  0
  2  3  2  0
 21 22  2  0
 22 17  1  0
 16 17  1  0
  5  6  1  0
 20 23  1  0
 11 12  1  0
 23 24  1  0
M  END
>  <Curated_InChIs>  (100) 
InChI=1S/C21H20O3/c1-22-17-10-8-15(9-11-17)20-6-4-5-7-21(20)16-12-18(23-2)14-19(13-16)24-3/h4-14H,1-3H3

>  <threshold>  (100) 
5

>  <pchembl>  (100) 
4.8

>  <Classification>  (100) 
0

>  <source>  (100) 
chembl_28

>  <SMILES>  (100) 
COc1ccc(-c2ccccc2-c2cc(OC)cc(OC)c2)cc1

>  <InChIKey>  (100) 
YTEAKYDIQLKHMB-UHFFFAOYSA-N

$$$$

     RDKit          2D

 19 21  0  0  0  0  0  0  0  0999 V2000
    8.4684  -21.4765    0.0000 C   0  0  0  0  0  0  0  0  0  0  0  0
    8.4673  -22.3029    0.0000 C   0  0  0  0  0  0  0  0  0  0  0  0
    9.1813  -22.7153    0.0000 C   0  0  0  0  0  0  0  0  0  0  0  0
    9.1795  -21.0641    0.0000 C   0  0  0  0  0  0  0  0  0  0  0  0
    9.8942  -21.4728    0.0000 C   0  0  0  0  0  0  0  0  0  0  0  0
    9.8930  -22.3050    0.0000 C   0  0  0  0  0  0  0  0  0  0  0  0
   10.6091  -22.7198    0.0000 C   0  0  0  0  0  0  0  0  0  0  0  0
   11.3309  -22.3071    0.0000 C   0  0  0  0  0  0  0  0  0  0  0  0
   11.3321  -21.4749    0.0000 C   0  0  0  0  0  0  0  0  0  0  0  0
   10.6115  -21.0554    0.0000 O   0  0  0  0  0  0  0  0  0  0  0  0
   10.6067  -23.5439    0.0000 O   0  0  0  0  0  0  0  0  0  0  0  0
   12.0451  -21.0671    0.0000 C   0  0  0  0  0  0  0  0  0  0  0  0
   12.7580  -21.4827    0.0000 C   0  0  0  0  0  0  0  0  0  0  0  0
   13.4722  -21.0731    0.0000 C   0  0  0  0  0  0  0  0  0  0  0  0
   13.4747  -20.2481    0.0000 C   0  0  0  0  0  0  0  0  0  0  0  0
   12.7570  -19.8345    0.0000 C   0  0  0  0  0  0  0  0  0  0  0  0
   12.0352  -20.2301    0.0000 C   0  0  0  0  0  0  0  0  0  0  0  0
    7.7533  -22.7144    0.0000 O   0  0  0  0  0  0  0  0  0  0  0  0
    7.0399  -22.3018    0.0000 C   0  0  0  0  0  0  0  0  0  0  0  0
  7  8  1  0
  8  9  1  0
  9 10  1  0
  5  6  1  0
  7 11  2  0
  2  3  1  0
 12 13  2  0
  3  6  2  0
 13 14  1  0
  1  2  2  0
 14 15  2  0
  5  4  2  0
 15 16  1  0
 16 17  2  0
 17 12  1  0
  9 12  1  0
  4  1  1  0
  5 10  1  0
  2 18  1  0
  6  7  1  0
 18 19  1  0
M  END
>  <Curated_InChIs>  (101) 
InChI=1S/C16H14O3/c1-18-12-7-8-15-13(9-12)14(17)10-16(19-15)11-5-3-2-4-6-11/h2-9,16H,10H2,1H3

>  <threshold>  (101) 
5

>  <pchembl>  (101) 
4.19

>  <Classification>  (101) 
0

>  <source>  (101) 
chembl_28

>  <SMILES>  (101) 
COc1ccc2c(c1)C(=O)CC(c1ccccc1)O2

>  <InChIKey>  (101) 
YURQMHCZHLMHIB-UHFFFAOYSA-N

$$$$

     RDKit          2D

 32 33  0  0  0  0  0  0  0  0999 V2000
    3.7915  -24.9779    0.0000 C   0  0  0  0  0  0  0  0  0  0  0  0
    3.7904  -25.7975    0.0000 C   0  0  0  0  0  0  0  0  0  0  0  0
    4.4984  -26.2065    0.0000 C   0  0  0  0  0  0  0  0  0  0  0  0
    5.2081  -25.7970    0.0000 C   0  0  0  0  0  0  0  0  0  0  0  0
    5.2052  -24.9744    0.0000 C   0  0  0  0  0  0  0  0  0  0  0  0
    4.4966  -24.5691    0.0000 C   0  0  0  0  0  0  0  0  0  0  0  0
    5.9114  -24.5631    0.0000 C   0  0  0  0  0  0  0  0  0  0  0  0
    6.6206  -24.9690    0.0000 C   0  0  0  0  0  0  0  0  0  0  0  0
    7.3268  -24.5578    0.0000 C   0  0  0  0  0  0  0  0  0  0  0  0
    8.0361  -24.9637    0.0000 C   0  0  0  0  0  0  0  0  0  0  0  0
    8.0360  -25.7797    0.0000 C   0  0  0  0  0  0  0  0  0  0  0  0
    8.7444  -26.1856    0.0000 C   0  0  0  0  0  0  0  0  0  0  0  0
    9.4516  -25.7743    0.0000 C   0  0  0  0  0  0  0  0  0  0  0  0
    9.4459  -24.9529    0.0000 C   0  0  0  0  0  0  0  0  0  0  0  0
    8.7369  -24.5507    0.0000 C   0  0  0  0  0  0  0  0  0  0  0  0
    5.9164  -26.2045    0.0000 O   0  0  0  0  0  0  0  0  0  0  0  0
    3.0823  -26.2055    0.0000 O   0  0  0  0  0  0  0  0  0  0  0  0
    3.0837  -24.5695    0.0000 C   0  0  0  0  0  0  0  0  0  0  0  0
    4.4942  -23.7519    0.0000 O   0  0  0  0  0  0  0  0  0  0  0  0
    5.9177  -27.0217    0.0000 C   0  0  0  0  0  0  0  0  0  0  0  0
    5.9083  -23.7459    0.0000 O   0  0  0  0  0  0  0  0  0  0  0  0
    3.0817  -27.0227    0.0000 C   0  0  0  0  0  0  0  0  0  0  0  0
    2.3761  -24.9783    0.0000 C   0  0  0  0  0  0  0  0  0  0  0  0
    1.6683  -24.5699    0.0000 C   0  0  0  0  0  0  0  0  0  0  0  0
    0.9607  -24.9786    0.0000 C   0  0  0  0  0  0  0  0  0  0  0  0
    1.6681  -23.7527    0.0000 C   0  0  0  0  0  0  0  0  0  0  0  0
    8.7302  -23.7336    0.0000 O   0  0  0  0  0  0  0  0  0  0  0  0
    9.4345  -23.3191    0.0000 C   0  0  0  0  0  0  0  0  0  0  0  0
   10.1506  -24.5391    0.0000 O   0  0  0  0  0  0  0  0  0  0  0  0
   10.8612  -24.9425    0.0000 C   0  0  0  0  0  0  0  0  0  0  0  0
   10.1614  -26.1793    0.0000 O   0  0  0  0  0  0  0  0  0  0  0  0
   10.1655  -26.9964    0.0000 C   0  0  0  0  0  0  0  0  0  0  0  0
  1  2  2  0
  2  3  1  0
  3  4  2  0
  4  5  1  0
  5  6  2  0
  6  1  1  0
  5  7  1  0
  7  8  1  0
  8  9  2  0
  9 10  1  0
 10 11  2  0
 11 12  1  0
 12 13  2  0
 13 14  1  0
 14 15  2  0
 15 10  1  0
  4 16  1  0
  2 17  1  0
  1 18  1  0
  6 19  1  0
 16 20  1  0
  7 21  2  0
 17 22  1  0
 18 23  1  0
 23 24  2  3
 24 25  1  0
 24 26  1  0
 15 27  1  0
 27 28  1  0
 14 29  1  0
 29 30  1  0
 13 31  1  0
 31 32  1  0
M  END
>  <Curated_InChIs>  (102) 
InChI=1S/C25H30O7/c1-15(2)8-11-17-20(29-4)14-21(30-5)22(23(17)27)18(26)12-9-16-10-13-19(28-3)25(32-7)24(16)31-6/h8-10,12-14,27H,11H2,1-7H3

>  <threshold>  (102) 
5

>  <pchembl>  (102) 
4.56

>  <Classification>  (102) 
0

>  <source>  (102) 
chembl_28

>  <SMILES>  (102) 
COc1cc(OC)c(C(=O)/C=C/c2ccc(OC)c(OC)c2OC)c(O)c1CC=C(C)C

>  <InChIKey>  (102) 
ZAZLZMFXJGGOKU-FMIVXFBMSA-N

$$$$

     RDKit          2D

 27 28  0  0  0  0  0  0  0  0999 V2000
    3.6387   -0.8963    0.0000 C   0  0  0  0  0  0  0  0  0  0  0  0
    2.6003   -1.4977    0.0000 O   0  0  0  0  0  0  0  0  0  0  0  0
    1.2990   -0.7500    0.0000 C   0  0  0  0  0  0  0  0  0  0  0  0
    1.2990    0.7500    0.0000 C   0  0  0  0  0  0  0  0  0  0  0  0
    0.0000    1.5000    0.0000 C   0  0  0  0  0  0  0  0  0  0  0  0
   -0.0031    3.0008    0.0000 C   0  0  0  0  0  0  0  0  0  0  0  0
   -1.3039    3.7494    0.0000 C   0  0  0  0  0  0  0  0  0  0  0  0
   -1.3070    5.2502    0.0000 C   0  0  0  0  0  0  0  0  0  0  0  0
   -2.6078    5.9988    0.0000 C   0  0  0  0  0  0  0  0  0  0  0  0
   -2.6109    7.4996    0.0000 C   0  0  0  0  0  0  0  0  0  0  0  0
   -1.5728    8.1014    0.0000 O   0  0  0  0  0  0  0  0  0  0  0  0
   -3.9118    8.2481    0.0000 C   0  0  0  0  0  0  0  0  0  0  0  0
   -3.9149    9.7490    0.0000 C   0  0  0  0  0  0  0  0  0  0  0  0
   -5.2157   10.4975    0.0000 C   0  0  0  0  0  0  0  0  0  0  0  0
   -5.2210   11.9975    0.0000 C   0  0  0  0  0  0  0  0  0  0  0  0
   -6.5226   12.7430    0.0000 C   0  0  0  0  0  0  0  0  0  0  0  0
   -7.8190   11.9885    0.0000 C   0  0  0  0  0  0  0  0  0  0  0  0
   -8.8603   12.5849    0.0000 O   0  0  0  0  0  0  0  0  0  0  0  0
   -7.8138   10.4885    0.0000 C   0  0  0  0  0  0  0  0  0  0  0  0
   -9.1094    9.7310    0.0000 O   0  0  0  0  0  0  0  0  0  0  0  0
   -9.1036    8.5310    0.0000 C   0  0  0  0  0  0  0  0  0  0  0  0
   -6.5122    9.7430    0.0000 C   0  0  0  0  0  0  0  0  0  0  0  0
   -0.2688    5.8520    0.0000 O   0  0  0  0  0  0  0  0  0  0  0  0
   -1.2990    0.7500    0.0000 C   0  0  0  0  0  0  0  0  0  0  0  0
   -1.2990   -0.7500    0.0000 C   0  0  0  0  0  0  0  0  0  0  0  0
    0.0000   -1.5000    0.0000 C   0  0  0  0  0  0  0  0  0  0  0  0
    0.0000   -2.7000    0.0000 O   0  0  0  0  0  0  0  0  0  0  0  0
  1  2  1  0
  2  3  1  0
  3  4  2  0
  4  5  1  0
  5  6  1  0
  6  7  2  0
  7  8  1  0
  8  9  2  0
  9 10  1  0
 10 11  2  0
 10 12  1  0
 12 13  2  0
 13 14  1  0
 14 15  2  0
 15 16  1  0
 16 17  2  0
 17 18  1  0
 17 19  1  0
 19 20  1  0
 20 21  1  0
 19 22  2  0
 22 14  1  0
  8 23  1  0
  5 24  2  0
 24 25  1  0
 25 26  2  0
 26  3  1  0
 26 27  1  0
M  END
>  <Curated_InChIs>  (103) 
InChI=1S/C21H20O6/c1-26-20-11-14(5-9-18(20)24)3-7-16(22)13-17(23)8-4-15-6-10-19(25)21(12-15)27-2/h3-13,22,24-25H,1-2H3

>  <threshold>  (103) 
5

>  <pchembl>  (103) 
4.21

>  <Classification>  (103) 
0

>  <source>  (103) 
chembl_28

>  <SMILES>  (103) 
COc1cc(/C=C/C(=O)/C=C(O)/C=C/c2ccc(O)c(OC)c2)ccc1O

>  <InChIKey>  (103) 
ZIUSSTSXXLLKKK-KOBPDPAPSA-N

$$$$

     RDKit          2D

 39 42  0  0  0  0  0  0  0  0999 V2000
    5.0042   -2.2292    0.0000 C   0  0  0  0  0  0  0  0  0  0  0  0
    5.0042   -2.9750    0.0000 C   0  0  0  0  0  0  0  0  0  0  0  0
    6.2917   -2.9750    0.0000 C   0  0  0  0  0  0  0  0  0  0  0  0
    5.6542   -1.8542    0.0000 C   0  0  0  0  0  0  0  0  0  0  0  0
    6.2917   -2.2292    0.0000 C   0  0  0  0  0  0  0  0  0  0  0  0
    5.6542   -3.3500    0.0000 C   0  0  0  0  0  0  0  0  0  0  0  0
    5.0042   -3.7167    0.0000 O   0  0  0  0  0  0  0  0  0  0  0  0
    6.2917   -3.7167    0.0000 C   0  0  0  0  0  0  0  0  0  0  0  0
    4.3667   -1.8542    0.0000 C   0  0  0  0  0  0  0  0  0  0  0  0
    5.6500   -1.1125    0.0000 O   0  0  0  0  0  0  0  0  0  0  0  0
    4.3667   -3.3500    0.0000 C   0  0  0  0  0  0  0  0  0  0  0  0
    3.7167   -2.2292    0.0000 C   0  0  0  0  0  0  0  0  0  0  0  0
    6.2875   -0.7292    0.0000 C   0  0  0  0  0  0  0  0  0  0  0  0
    5.0167   -0.2292    0.0000 C   0  0  0  0  0  0  0  0  0  0  0  0
    3.7167   -2.9750    0.0000 C   0  0  0  0  0  0  0  0  0  0  0  0
    5.6625   -4.4417    0.0000 O   0  0  0  0  0  0  0  0  0  0  0  0
    2.9917   -2.0375    0.0000 O   0  0  0  0  0  0  0  0  0  0  0  0
    4.7042   -5.0125    0.0000 C   0  0  0  0  0  0  0  0  0  0  0  0
    2.3500   -2.4125    0.0000 C   0  0  0  0  0  0  0  0  0  0  0  0
    6.9417   -1.8542    0.0000 O   0  0  0  0  0  0  0  0  0  0  0  0
    5.4167    0.9208    0.0000 C   0  0  0  0  0  0  0  0  0  0  0  0
    6.9375   -1.1042    0.0000 O   0  0  0  0  0  0  0  0  0  0  0  0
    5.5500    0.2333    0.0000 O   0  0  0  0  0  0  0  0  0  0  0  0
    6.7167    0.1000    0.0000 C   0  0  0  0  0  0  0  0  0  0  0  0
    4.0167   -4.7292    0.0000 O   0  0  0  0  0  0  0  0  0  0  0  0
    1.7292   -1.9917    0.0000 O   0  0  0  0  0  0  0  0  0  0  0  0
    6.0667    1.2958    0.0000 O   0  0  0  0  0  0  0  0  0  0  0  0
    4.3667   -1.1125    0.0000 O   0  0  0  0  0  0  0  0  0  0  0  0
    6.8167   -3.1917    0.0000 C   0  0  0  0  0  0  0  0  0  0  0  0
    6.8167   -4.2417    0.0000 C   0  0  0  0  0  0  0  0  0  0  0  0
    4.3667   -4.0917    0.0000 C   0  0  0  0  0  0  0  0  0  0  0  0
    4.8167   -5.7542    0.0000 C   0  0  0  0  0  0  0  0  0  0  0  0
    2.3042   -3.1500    0.0000 C   0  0  0  0  0  0  0  0  0  0  0  0
    4.7667    1.2958    0.0000 C   0  0  0  0  0  0  0  0  0  0  0  0
    7.5417    0.1208    0.0000 C   0  0  0  0  0  0  0  0  0  0  0  0
    6.2917    0.8083    0.0000 C   0  0  0  0  0  0  0  0  0  0  0  0
    6.6792    1.5333    0.0000 C   0  0  0  0  0  0  0  0  0  0  0  0
    7.9417    0.8458    0.0000 C   0  0  0  0  0  0  0  0  0  0  0  0
    7.5042    1.5583    0.0000 C   0  0  0  0  0  0  0  0  0  0  0  0
  2  1  1  0
  3  5  1  6
  4  1  1  0
  5  4  1  0
  6  2  1  0
  2  7  1  1
  8  7  1  0
  9  1  1  0
  4 10  1  6
 11  2  1  0
 12  9  1  0
 13 10  1  0
  1 14  1  6
 15 12  1  0
  6 16  1  1
 12 17  1  6
 18 16  1  0
 19 17  1  0
 20  5  2  0
 21 23  1  0
 22 13  2  0
 23 14  1  0
 24 13  1  0
 25 18  2  0
 26 19  2  0
 27 21  2  0
  9 28  1  6
  8 29  1  0
  8 30  1  0
 11 31  1  6
 32 18  1  0
 33 19  1  0
 34 21  1  0
 35 24  2  0
 36 24  1  0
 37 36  2  0
 38 35  1  0
 39 37  1  0
  3  6  1  0
 15 11  1  0
  3  8  1  0
 38 39  2  0
M  END
>  <Curated_InChIs>  (104) 
InChI=1S/C28H34O11/c1-14-12-19(36-16(3)30)22(33)27(13-35-15(2)29)24(38-25(34)18-10-8-7-9-11-18)21(32)20-23(37-17(4)31)28(14,27)39-26(20,5)6/h7-11,14,19-20,22-24,33H,12-13H2,1-6H3

>  <threshold>  (104) 
5

>  <pchembl>  (104) 
4.74

>  <Classification>  (104) 
0

>  <source>  (104) 
chembl_28

>  <SMILES>  (104) 
CC(=O)OC[C@]12[C@H](OC(=O)c3ccccc3)C(=O)[C@H]3[C@@H](OC(C)=O)[C@]1(OC3(C)C)[C@H](C)C[C@H](OC(C)=O)[C@@H]2O

>  <InChIKey>  (104) 
ZIVIDPAKHDFBIX-QGWXQKAZSA-N

$$$$

     RDKit          2D

 32 35  0  0  0  0  0  0  0  0999 V2000
   25.6564  -19.9745    0.0000 O   0  0  0  0  0  0  0  0  0  0  0  0
   26.3632  -20.3848    0.0000 C   0  0  0  0  0  0  0  0  0  0  0  0
   26.3598  -21.2019    0.0000 C   0  0  0  0  0  0  0  0  0  0  0  0
   27.7747  -20.3838    0.0000 C   0  0  0  0  0  0  0  0  0  0  0  0
   27.0682  -19.9773    0.0000 C   0  0  0  0  0  0  0  0  0  0  0  0
   27.7753  -21.2052    0.0000 C   0  0  0  0  0  0  0  0  0  0  0  0
   27.0663  -21.6072    0.0000 C   0  0  0  0  0  0  0  0  0  0  0  0
   27.0599  -22.4178    0.0000 O   0  0  0  0  0  0  0  0  0  0  0  0
   27.7609  -22.8325    0.0000 C   0  0  0  0  0  0  0  0  0  0  0  0
   28.4700  -22.4305    0.0000 C   0  0  0  0  0  0  0  0  0  0  0  0
   28.4781  -21.6138    0.0000 C   0  0  0  0  0  0  0  0  0  0  0  0
   27.7534  -23.6497    0.0000 O   0  0  0  0  0  0  0  0  0  0  0  0
   29.1741  -22.8454    0.0000 C   0  0  0  0  0  0  0  0  0  0  0  0
   29.1884  -21.2098    0.0000 C   0  0  0  0  0  0  0  0  0  0  0  0
   19.2851  -20.3761    0.0000 C   0  0  0  0  0  0  0  0  0  0  0  0
   19.2840  -21.1956    0.0000 C   0  0  0  0  0  0  0  0  0  0  0  0
   19.9920  -21.6046    0.0000 C   0  0  0  0  0  0  0  0  0  0  0  0
   19.9902  -19.9672    0.0000 C   0  0  0  0  0  0  0  0  0  0  0  0
   20.6989  -20.3725    0.0000 C   0  0  0  0  0  0  0  0  0  0  0  0
   20.6977  -21.1931    0.0000 C   0  0  0  0  0  0  0  0  0  0  0  0
   21.4039  -21.6022    0.0000 C   0  0  0  0  0  0  0  0  0  0  0  0
   22.1158  -21.1951    0.0000 C   0  0  0  0  0  0  0  0  0  0  0  0
   22.1169  -20.3745    0.0000 N   0  0  0  0  0  0  0  0  0  0  0  0
   21.4062  -19.9609    0.0000 C   0  0  0  0  0  0  0  0  0  0  0  0
   22.8256  -19.9676    0.0000 C   0  0  0  0  0  0  0  0  0  0  0  0
   23.5323  -20.3779    0.0000 C   0  0  0  0  0  0  0  0  0  0  0  0
   24.2410  -19.9710    0.0000 C   0  0  0  0  0  0  0  0  0  0  0  0
   24.9478  -20.3813    0.0000 C   0  0  0  0  0  0  0  0  0  0  0  0
   18.5773  -19.9677    0.0000 O   0  0  0  0  0  0  0  0  0  0  0  0
   17.8697  -20.3764    0.0000 C   0  0  0  0  0  0  0  0  0  0  0  0
   18.5759  -21.6037    0.0000 O   0  0  0  0  0  0  0  0  0  0  0  0
   17.8686  -21.1945    0.0000 C   0  0  0  0  0  0  0  0  0  0  0  0
  1  2  1  0
  2  3  2  0
  3  7  1  0
  6  4  1  0
  4  5  2  0
  5  2  1  0
  6  7  2  0
  6 11  1  0
  7  8  1  0
  8  9  1  0
  9 10  1  0
 10 11  2  0
  9 12  2  0
 10 13  1  0
 11 14  1  0
 15 16  2  0
 16 17  1  0
 17 20  2  0
 19 18  2  0
 18 15  1  0
 19 20  1  0
 19 24  1  0
 20 21  1  0
 21 22  1  0
 22 23  1  0
 23 24  1  0
 23 25  1  0
 25 26  1  0
 26 27  2  0
 27 28  1  0
 28  1  1  0
 15 29  1  0
 29 30  1  0
 16 31  1  0
 31 32  1  0
M  END
>  <Curated_InChIs>  (105) 
InChI=1S/C26H29NO5/c1-17-18(2)26(28)32-23-15-21(7-8-22(17)23)31-12-6-5-10-27-11-9-19-13-24(29-3)25(30-4)14-20(19)16-27/h5-8,13-15H,9-12,16H2,1-4H3

>  <threshold>  (105) 
5

>  <pchembl>  (105) 
6.0

>  <Classification>  (105) 
1

>  <source>  (105) 
chembl_28

>  <SMILES>  (105) 
COc1cc2c(cc1OC)CN(C/C=C/COc1ccc3c(C)c(C)c(=O)oc3c1)CC2

>  <InChIKey>  (105) 
ANDDRXHQHKELJW-AATRIKPKSA-N

$$$$

     RDKit          2D

 29 32  0  0  0  0  0  0  0  0999 V2000
   24.3189  -10.7755    0.0000 O   0  0  0  0  0  0  0  0  0  0  0  0
   25.0254  -10.3649    0.0000 C   0  0  0  0  0  0  0  0  0  0  0  0
   25.7336  -10.7726    0.0000 C   0  0  0  0  0  0  0  0  0  0  0  0
   25.7238   -9.1382    0.0000 C   0  0  0  0  0  0  0  0  0  0  0  0
   25.0207   -9.5505    0.0000 C   0  0  0  0  0  0  0  0  0  0  0  0
   26.4377   -9.5446    0.0000 C   0  0  0  0  0  0  0  0  0  0  0  0
   26.4356  -10.3597    0.0000 C   0  0  0  0  0  0  0  0  0  0  0  0
   27.1366  -10.7667    0.0000 O   0  0  0  0  0  0  0  0  0  0  0  0
   27.8442  -10.3632    0.0000 C   0  0  0  0  0  0  0  0  0  0  0  0
   27.8462   -9.5480    0.0000 C   0  0  0  0  0  0  0  0  0  0  0  0
   27.1407   -9.1365    0.0000 C   0  0  0  0  0  0  0  0  0  0  0  0
   28.5503  -10.7745    0.0000 O   0  0  0  0  0  0  0  0  0  0  0  0
   28.5553   -9.1419    0.0000 C   0  0  0  0  0  0  0  0  0  0  0  0
   27.1416   -8.3193    0.0000 C   0  0  0  0  0  0  0  0  0  0  0  0
   17.2406  -10.7703    0.0000 C   0  0  0  0  0  0  0  0  0  0  0  0
   17.2395  -11.5898    0.0000 C   0  0  0  0  0  0  0  0  0  0  0  0
   17.9475  -11.9988    0.0000 C   0  0  0  0  0  0  0  0  0  0  0  0
   17.9457  -10.3614    0.0000 C   0  0  0  0  0  0  0  0  0  0  0  0
   18.6544  -10.7667    0.0000 C   0  0  0  0  0  0  0  0  0  0  0  0
   18.6532  -11.5873    0.0000 C   0  0  0  0  0  0  0  0  0  0  0  0
   19.3594  -11.9964    0.0000 C   0  0  0  0  0  0  0  0  0  0  0  0
   20.0713  -11.5893    0.0000 C   0  0  0  0  0  0  0  0  0  0  0  0
   20.0724  -10.7687    0.0000 N   0  0  0  0  0  0  0  0  0  0  0  0
   19.3617  -10.3551    0.0000 C   0  0  0  0  0  0  0  0  0  0  0  0
   20.7811  -10.3618    0.0000 C   0  0  0  0  0  0  0  0  0  0  0  0
   21.4878  -10.7721    0.0000 C   0  0  0  0  0  0  0  0  0  0  0  0
   22.1965  -10.3652    0.0000 C   0  0  0  0  0  0  0  0  0  0  0  0
   22.9033  -10.7755    0.0000 C   0  0  0  0  0  0  0  0  0  0  0  0
   23.6120  -10.3687    0.0000 C   0  0  0  0  0  0  0  0  0  0  0  0
  1  2  1  0
  2  3  2  0
  3  7  1  0
  6  4  1  0
  4  5  2  0
  5  2  1  0
  6  7  2  0
  6 11  1  0
  7  8  1  0
  8  9  1  0
  9 10  1  0
 10 11  2  0
  9 12  2  0
 10 13  1  0
 11 14  1  0
 15 16  2  0
 16 17  1  0
 17 20  2  0
 19 18  2  0
 18 15  1  0
 19 20  1  0
 19 24  1  0
 20 21  1  0
 21 22  1  0
 22 23  1  0
 23 24  1  0
 23 25  1  0
 25 26  1  0
 26 27  1  0
 27 28  1  0
 28 29  1  0
 29  1  1  0
M  END
>  <Curated_InChIs>  (106) 
InChI=1S/C25H29NO3/c1-18-19(2)25(27)29-24-16-22(10-11-23(18)24)28-15-7-3-6-13-26-14-12-20-8-4-5-9-21(20)17-26/h4-5,8-11,16H,3,6-7,12-15,17H2,1-2H3

>  <threshold>  (106) 
5

>  <pchembl>  (106) 
6.26

>  <Classification>  (106) 
1

>  <source>  (106) 
chembl_28

>  <SMILES>  (106) 
Cc1c(C)c2ccc(OCCCCCN3CCc4ccccc4C3)cc2oc1=O

>  <InChIKey>  (106) 
AORLPWHDMMBIES-UHFFFAOYSA-N

$$$$

     RDKit          2D

 31 35  0  0  0  0  0  0  0  0999 V2000
    2.6276  -19.4392    0.0000 C   0  0  0  0  0  0  0  0  0  0  0  0
    2.6265  -20.2587    0.0000 C   0  0  0  0  0  0  0  0  0  0  0  0
    3.3345  -20.6677    0.0000 C   0  0  0  0  0  0  0  0  0  0  0  0
    3.3327  -19.0303    0.0000 C   0  0  0  0  0  0  0  0  0  0  0  0
    4.0414  -19.4356    0.0000 C   0  0  0  0  0  0  0  0  0  0  0  0
    4.0416  -20.2588    0.0000 C   0  0  0  0  0  0  0  0  0  0  0  0
    4.8246  -20.5130    0.0000 N   0  0  0  0  0  0  0  0  0  0  0  0
    4.8242  -19.1811    0.0000 C   0  0  0  0  0  0  0  0  0  0  0  0
    5.3084  -19.8482    0.0000 C   0  0  0  0  0  0  0  0  0  0  0  0
    6.1237  -19.7629    0.0000 C   0  0  0  0  0  0  0  0  0  0  0  0
    6.4611  -19.0115    0.0000 N   0  0  0  0  0  0  0  0  0  0  0  0
    5.9769  -18.3444    0.0000 C   0  0  0  0  0  0  0  0  0  0  0  0
    5.1553  -18.4287    0.0000 C   0  0  0  0  0  0  0  0  0  0  0  0
    7.2740  -18.9276    0.0000 C   0  0  0  0  0  0  0  0  0  0  0  0
    7.7531  -19.5896    0.0000 O   0  0  0  0  0  0  0  0  0  0  0  0
    7.6078  -18.1817    0.0000 C   0  0  0  0  0  0  0  0  0  0  0  0
    8.4209  -18.1018    0.0000 C   0  0  0  0  0  0  0  0  0  0  0  0
    8.7547  -17.3568    0.0000 C   0  0  0  0  0  0  0  0  0  0  0  0
    8.2754  -16.6938    0.0000 C   0  0  0  0  0  0  0  0  0  0  0  0
    7.4586  -16.7807    0.0000 C   0  0  0  0  0  0  0  0  0  0  0  0
    7.1286  -17.5260    0.0000 C   0  0  0  0  0  0  0  0  0  0  0  0
    6.6036  -20.4215    0.0000 C   0  0  0  0  0  0  0  0  0  0  0  0
    6.2681  -21.1679    0.0000 C   0  0  0  0  0  0  0  0  0  0  0  0
    6.7465  -21.8295    0.0000 C   0  0  0  0  0  0  0  0  0  0  0  0
    7.5603  -21.7460    0.0000 C   0  0  0  0  0  0  0  0  0  0  0  0
    7.8934  -20.9951    0.0000 C   0  0  0  0  0  0  0  0  0  0  0  0
    7.4130  -20.3367    0.0000 C   0  0  0  0  0  0  0  0  0  0  0  0
    8.6082  -15.9474    0.0000 O   0  0  0  0  0  0  0  0  0  0  0  0
    9.4210  -15.8624    0.0000 C   0  0  0  0  0  0  0  0  0  0  0  0
    6.4124  -22.5753    0.0000 F   0  0  0  0  0  0  0  0  0  0  0  0
    8.0403  -22.4074    0.0000 F   0  0  0  0  0  0  0  0  0  0  0  0
  1  2  2  0
  2  3  1  0
  3  6  2  0
  5  4  2  0
  4  1  1  0
  5  6  1  0
  6  7  1  0
  7  9  1  0
  8  5  1  0
  8  9  2  0
  8 13  1  0
  9 10  1  0
 10 11  1  0
 11 12  1  0
 12 13  1  0
 11 14  1  0
 14 15  2  0
 14 16  1  0
 16 17  2  0
 17 18  1  0
 18 19  2  0
 19 20  1  0
 20 21  2  0
 21 16  1  0
 22 23  2  0
 23 24  1  0
 24 25  2  0
 25 26  1  0
 26 27  2  0
 27 22  1  0
 10 22  1  0
 19 28  1  0
 28 29  1  0
 24 30  1  0
 25 31  1  0
M  END
>  <Curated_InChIs>  (107) 
InChI=1S/C25H20F2N2O2/c1-31-17-9-6-15(7-10-17)25(30)29-13-12-19-18-4-2-3-5-22(18)28-23(19)24(29)16-8-11-20(26)21(27)14-16/h2-11,14,24,28H,12-13H2,1H3

>  <threshold>  (107) 
5

>  <pchembl>  (107) 
5.08

>  <Classification>  (107) 
1

>  <source>  (107) 
chembl_28

>  <SMILES>  (107) 
COc1ccc(C(=O)N2CCc3c([nH]c4ccccc34)C2c2ccc(F)c(F)c2)cc1

>  <InChIKey>  (107) 
APZUHYITGIWJGL-UHFFFAOYSA-N

$$$$

     RDKit          2D

 37 41  0  0  0  0  0  0  0  0999 V2000
   32.6407  -11.2056    0.0000 C   0  0  0  0  0  0  0  0  0  0  0  0
   32.6396  -12.0252    0.0000 C   0  0  0  0  0  0  0  0  0  0  0  0
   33.3476  -12.4341    0.0000 C   0  0  0  0  0  0  0  0  0  0  0  0
   33.3458  -10.7968    0.0000 C   0  0  0  0  0  0  0  0  0  0  0  0
   34.0545  -11.2020    0.0000 C   0  0  0  0  0  0  0  0  0  0  0  0
   34.0533  -12.0227    0.0000 C   0  0  0  0  0  0  0  0  0  0  0  0
   34.7595  -12.4317    0.0000 C   0  0  0  0  0  0  0  0  0  0  0  0
   35.4714  -12.0247    0.0000 C   0  0  0  0  0  0  0  0  0  0  0  0
   35.4725  -11.2040    0.0000 N   0  0  0  0  0  0  0  0  0  0  0  0
   34.7618  -10.7905    0.0000 C   0  0  0  0  0  0  0  0  0  0  0  0
   36.1812  -10.7972    0.0000 C   0  0  0  0  0  0  0  0  0  0  0  0
   36.8880  -11.2075    0.0000 C   0  0  0  0  0  0  0  0  0  0  0  0
   37.5967  -10.8006    0.0000 C   0  0  0  0  0  0  0  0  0  0  0  0
   31.9329  -10.7972    0.0000 O   0  0  0  0  0  0  0  0  0  0  0  0
   31.2253  -11.2060    0.0000 C   0  0  0  0  0  0  0  0  0  0  0  0
   31.9316  -12.4332    0.0000 O   0  0  0  0  0  0  0  0  0  0  0  0
   31.2242  -12.0241    0.0000 C   0  0  0  0  0  0  0  0  0  0  0  0
   38.3034  -11.2109    0.0000 C   0  0  0  0  0  0  0  0  0  0  0  0
   39.0121  -10.8040    0.0000 C   0  0  0  0  0  0  0  0  0  0  0  0
   39.7188  -11.2143    0.0000 O   0  0  0  0  0  0  0  0  0  0  0  0
   40.4285  -10.8092    0.0000 C   0  0  0  0  0  0  0  0  0  0  0  0
   41.1335  -11.2225    0.0000 C   0  0  0  0  0  0  0  0  0  0  0  0
   41.1364   -9.5880    0.0000 C   0  0  0  0  0  0  0  0  0  0  0  0
   40.4301   -9.9949    0.0000 C   0  0  0  0  0  0  0  0  0  0  0  0
   41.8471  -10.0000    0.0000 C   0  0  0  0  0  0  0  0  0  0  0  0
   41.8387  -10.8150    0.0000 C   0  0  0  0  0  0  0  0  0  0  0  0
   42.5365  -11.2275    0.0000 O   0  0  0  0  0  0  0  0  0  0  0  0
   43.2472  -10.8295    0.0000 C   0  0  0  0  0  0  0  0  0  0  0  0
   43.2556  -10.0145    0.0000 C   0  0  0  0  0  0  0  0  0  0  0  0
   42.5533   -9.5974    0.0000 C   0  0  0  0  0  0  0  0  0  0  0  0
   43.9501  -11.2464    0.0000 O   0  0  0  0  0  0  0  0  0  0  0  0
   43.9679   -9.6139    0.0000 C   0  0  0  0  0  0  0  0  0  0  0  0
   44.6688  -10.0330    0.0000 C   0  0  0  0  0  0  0  0  0  0  0  0
   45.3806   -9.6331    0.0000 C   0  0  0  0  0  0  0  0  0  0  0  0
   45.3903   -8.8151    0.0000 C   0  0  0  0  0  0  0  0  0  0  0  0
   44.6823   -8.3986    0.0000 C   0  0  0  0  0  0  0  0  0  0  0  0
   43.9734   -8.8009    0.0000 C   0  0  0  0  0  0  0  0  0  0  0  0
  1  2  2  0
  2  3  1  0
  3  6  2  0
  5  4  2  0
  4  1  1  0
  5  6  1  0
  5 10  1  0
  6  7  1  0
  7  8  1  0
  8  9  1  0
  9 10  1  0
  9 11  1  0
 11 12  1  0
 12 13  1  0
  1 14  1  0
 14 15  1  0
  2 16  1  0
 16 17  1  0
 13 18  1  0
 18 19  1  0
 19 20  1  0
 20 21  1  0
 21 22  2  0
 22 26  1  0
 25 23  1  0
 23 24  2  0
 24 21  1  0
 25 26  2  0
 25 30  1  0
 26 27  1  0
 27 28  1  0
 28 29  1  0
 29 30  2  0
 28 31  2  0
 29 32  1  0
 32 33  2  0
 33 34  1  0
 34 35  2  0
 35 36  1  0
 36 37  2  0
 37 32  1  0
M  END
>  <Curated_InChIs>  (108) 
InChI=1S/C31H33NO5/c1-34-29-18-23-13-15-32(21-25(23)19-30(29)35-2)14-7-4-8-16-36-26-12-11-24-17-27(22-9-5-3-6-10-22)31(33)37-28(24)20-26/h3,5-6,9-12,17-20H,4,7-8,13-16,21H2,1-2H3

>  <threshold>  (108) 
5

>  <pchembl>  (108) 
6.41

>  <Classification>  (108) 
1

>  <source>  (108) 
chembl_28

>  <SMILES>  (108) 
COc1cc2c(cc1OC)CN(CCCCCOc1ccc3cc(-c4ccccc4)c(=O)oc3c1)CC2

>  <InChIKey>  (108) 
ATJXBTDVXJXQOE-UHFFFAOYSA-N

$$$$

     RDKit          2D

 28 30  0  0  0  0  0  0  0  0999 V2000
   -3.7639   -8.1625    0.0000 C   0  0  0  0  0  0  0  0  0  0  0  0
   -3.7651   -8.9898    0.0000 C   0  0  0  0  0  0  0  0  0  0  0  0
   -3.0503   -9.4027    0.0000 C   0  0  0  0  0  0  0  0  0  0  0  0
   -2.3338   -8.9894    0.0000 C   0  0  0  0  0  0  0  0  0  0  0  0
   -2.3367   -8.1588    0.0000 C   0  0  0  0  0  0  0  0  0  0  0  0
   -3.0521   -7.7497    0.0000 C   0  0  0  0  0  0  0  0  0  0  0  0
   -1.6238   -7.7436    0.0000 C   0  0  0  0  0  0  0  0  0  0  0  0
   -0.9078   -8.1534    0.0000 N   0  0  0  0  0  0  0  0  0  0  0  0
   -0.1948   -7.7383    0.0000 C   0  0  0  0  0  0  0  0  0  0  0  0
    0.5196   -8.1515    0.0000 C   0  0  0  0  0  0  0  0  0  0  0  0
    1.2320   -7.7370    0.0000 C   0  0  0  0  0  0  0  0  0  0  0  0
    1.2293   -6.9111    0.0000 C   0  0  0  0  0  0  0  0  0  0  0  0
    0.5083   -6.5015    0.0000 C   0  0  0  0  0  0  0  0  0  0  0  0
   -0.2012   -6.9183    0.0000 C   0  0  0  0  0  0  0  0  0  0  0  0
   -1.6269   -6.9186    0.0000 O   0  0  0  0  0  0  0  0  0  0  0  0
    1.9381   -6.4946    0.0000 C   0  0  0  0  0  0  0  0  0  0  0  0
    2.6549   -6.9052    0.0000 C   0  0  0  0  0  0  0  0  0  0  0  0
    3.3668   -6.4897    0.0000 C   0  0  0  0  0  0  0  0  0  0  0  0
    3.3630   -5.6638    0.0000 C   0  0  0  0  0  0  0  0  0  0  0  0
    2.6415   -5.2552    0.0000 C   0  0  0  0  0  0  0  0  0  0  0  0
    1.9325   -5.6730    0.0000 C   0  0  0  0  0  0  0  0  0  0  0  0
   -3.0505  -10.2277    0.0000 O   0  0  0  0  0  0  0  0  0  0  0  0
   -3.7650  -10.6400    0.0000 C   0  0  0  0  0  0  0  0  0  0  0  0
   -4.4799   -9.4018    0.0000 O   0  0  0  0  0  0  0  0  0  0  0  0
   -5.1940   -8.9887    0.0000 C   0  0  0  0  0  0  0  0  0  0  0  0
   -4.4785   -7.7501    0.0000 O   0  0  0  0  0  0  0  0  0  0  0  0
   -4.4787   -6.9251    0.0000 C   0  0  0  0  0  0  0  0  0  0  0  0
    0.5206   -8.9765    0.0000 F   0  0  0  0  0  0  0  0  0  0  0  0
 13 14  2  0
 14  9  1  0
  5  7  1  0
  7 15  2  0
  3  4  1  0
  7  8  1  0
 16 17  2  0
 17 18  1  0
  8  9  1  0
 18 19  2  0
  4  5  2  0
 19 20  1  0
  9 10  2  0
 20 21  2  0
 21 16  1  0
 12 16  1  0
  2  3  2  0
  3 22  1  0
 10 11  1  0
 22 23  1  0
  5  6  1  0
  2 24  1  0
 11 12  2  0
 24 25  1  0
  6  1  2  0
  1 26  1  0
 12 13  1  0
 26 27  1  0
  1  2  1  0
 10 28  1  0
M  END
>  <Curated_InChIs>  (109) 
InChI=1S/C22H20FNO4/c1-26-19-12-16(13-20(27-2)21(19)28-3)22(25)24-18-10-9-15(11-17(18)23)14-7-5-4-6-8-14/h4-13H,1-3H3,(H,24,25)

>  <threshold>  (109) 
5

>  <pchembl>  (109) 
5.85

>  <Classification>  (109) 
1

>  <source>  (109) 
chembl_28

>  <SMILES>  (109) 
COc1cc(C(=O)Nc2ccc(-c3ccccc3)cc2F)cc(OC)c1OC

>  <InChIKey>  (109) 
ATXLFMCOYDBQKY-UHFFFAOYSA-N

$$$$

     RDKit          2D

 52 55  0  0  0  0  0  0  0  0999 V2000
    7.5735   -2.5465    0.0000 C   0  0  0  0  0  0  0  0  0  0  0  0
    7.1690   -3.2564    0.0000 C   0  0  0  0  0  0  0  0  0  0  0  0
    7.9860   -3.2517    0.0000 C   0  0  0  0  0  0  0  0  0  0  0  0
    5.1955   -4.0769    0.0000 C   0  0  0  0  0  0  0  0  0  0  0  0
    5.7707   -2.6780    0.0000 C   0  0  0  0  0  0  0  0  0  0  0  0
    5.7708   -4.6520    0.0000 C   0  0  0  0  0  0  0  0  0  0  0  0
    6.5904   -4.6520    0.0000 C   0  0  0  0  0  0  0  0  0  0  0  0
    7.1697   -4.0769    0.0000 C   0  0  0  0  0  0  0  0  0  0  0  0
    6.5904   -2.6779    0.0000 C   0  0  0  0  0  0  0  0  0  0  0  0
    2.5300   -3.0872    0.0000 C   0  0  0  0  0  0  0  0  0  0  0  0
    3.0169   -2.4285    0.0000 C   0  0  0  0  0  0  0  0  0  0  0  0
    3.0101   -3.7580    0.0000 C   0  0  0  0  0  0  0  0  0  0  0  0
    2.6059   -4.4687    0.0000 O   0  0  0  0  0  0  0  0  0  0  0  0
    3.3789   -1.9738    0.0000 O   0  0  0  0  0  0  0  0  0  0  0  0
    3.7964   -3.5032    0.0000 C   0  0  0  0  0  0  0  0  0  0  0  0
    3.7965   -2.6835    0.0000 C   0  0  0  0  0  0  0  0  0  0  0  0
    4.3731   -2.1069    0.0000 C   0  0  0  0  0  0  0  0  0  0  0  0
    4.3732   -4.0799    0.0000 C   0  0  0  0  0  0  0  0  0  0  0  0
    5.7694   -3.5032    0.0000 C   0  0  0  0  0  0  0  0  0  0  0  0
    5.1927   -2.1068    0.0000 C   0  0  0  0  0  0  0  0  0  0  0  0
    4.0603   -1.3520    0.0000 O   0  0  0  0  0  0  0  0  0  0  0  0
    5.5054   -1.3518    0.0000 C   0  0  0  0  0  0  0  0  0  0  0  0
    7.9242   -4.3906    0.0000 O   0  0  0  0  0  0  0  0  0  0  0  0
    5.4581   -5.4070    0.0000 O   0  0  0  0  0  0  0  0  0  0  0  0
    5.8699   -6.1131    0.0000 C   0  0  0  0  0  0  0  0  0  0  0  0
    5.4646   -6.8227    0.0000 C   0  0  0  0  0  0  0  0  0  0  0  0
    6.6871   -6.1093    0.0000 O   0  0  0  0  0  0  0  0  0  0  0  0
    7.0092   -5.3533    0.0000 O   0  0  0  0  0  0  0  0  0  0  0  0
    1.7887   -4.4743    0.0000 C   0  0  0  0  0  0  0  0  0  0  0  0
    1.3849   -5.1847    0.0000 C   0  0  0  0  0  0  0  0  0  0  0  0
    1.3753   -3.7693    0.0000 O   0  0  0  0  0  0  0  0  0  0  0  0
    4.0619   -4.8354    0.0000 O   0  0  0  0  0  0  0  0  0  0  0  0
    4.0571   -5.6502    0.0000 C   0  0  0  0  0  0  0  0  0  0  0  0
    4.7623   -6.0630    0.0000 O   0  0  0  0  0  0  0  0  0  0  0  0
    3.3470   -6.0546    0.0000 C   0  0  0  0  0  0  0  0  0  0  0  0
    1.7128   -3.0809    0.0000 C   0  0  0  0  0  0  0  0  0  0  0  0
    2.5617   -1.9805    0.0000 C   0  0  0  0  0  0  0  0  0  0  0  0
    2.1473   -1.2762    0.0000 O   0  0  0  0  0  0  0  0  0  0  0  0
    2.1590   -2.6916    0.0000 C   0  0  0  0  0  0  0  0  0  0  0  0
    2.6455   -5.6411    0.0000 C   0  0  0  0  0  0  0  0  0  0  0  0
    1.9359   -6.0449    0.0000 C   0  0  0  0  0  0  0  0  0  0  0  0
    1.9306   -6.8629    0.0000 C   0  0  0  0  0  0  0  0  0  0  0  0
    2.6409   -7.2755    0.0000 C   0  0  0  0  0  0  0  0  0  0  0  0
    3.3476   -6.8695    0.0000 C   0  0  0  0  0  0  0  0  0  0  0  0
    7.8263   -5.3411    0.0000 C   0  0  0  0  0  0  0  0  0  0  0  0
    8.2454   -6.0427    0.0000 C   0  0  0  0  0  0  0  0  0  0  0  0
    8.2244   -4.6274    0.0000 O   0  0  0  0  0  0  0  0  0  0  0  0
    7.8453   -6.7560    0.0000 C   0  0  0  0  0  0  0  0  0  0  0  0
    8.2637   -7.4571    0.0000 C   0  0  0  0  0  0  0  0  0  0  0  0
    9.0817   -7.4454    0.0000 C   0  0  0  0  0  0  0  0  0  0  0  0
    9.4795   -6.7267    0.0000 C   0  0  0  0  0  0  0  0  0  0  0  0
    9.0588   -6.0286    0.0000 C   0  0  0  0  0  0  0  0  0  0  0  0
  2  1  1  0
  3  2  1  0
  4  6  1  0
  6  7  1  0
  7  8  1  0
  8  2  1  0
  2  9  1  0
  9  5  2  0
 16 11  1  0
 11 10  1  0
 10 12  1  0
 12 15  1  0
 12 13  1  1
 16 14  1  1
 15 16  1  0
 16 17  1  0
 15 18  1  1
 18  4  1  0
  4 19  2  0
  5 20  1  0
 20 17  1  0
 17 21  2  0
 20 22  1  1
  8 23  2  0
  6 24  1  1
 24 25  1  0
 25 26  1  0
 25 27  2  0
  7 28  1  6
 13 29  1  0
 29 30  1  0
 29 31  2  0
 18 32  1  6
 32 33  1  0
 33 34  2  0
 33 35  1  0
 10 36  1  1
 14 37  1  0
 37 38  2  0
 37 39  1  0
 35 40  2  0
 40 41  1  0
 41 42  2  0
 42 43  1  0
 43 44  2  0
 44 35  1  0
 28 45  1  0
 45 46  1  0
 45 47  2  0
 46 48  2  0
 48 49  1  0
 49 50  2  0
 50 51  1  0
 51 52  2  0
 52 46  1  0
M  END
>  <Curated_InChIs>  (110) 
InChI=1S/C40H44O12/c1-22-19-20-39(7,8)36(45)34(51-38(47)29-17-13-10-14-18-29)33(49-26(5)42)24(3)32(50-37(46)28-15-11-9-12-16-28)30-31(48-25(4)41)23(2)21-40(30,35(22)44)52-27(6)43/h9-20,22-23,30-34H,3,21H2,1-2,4-8H3

>  <threshold>  (110) 
5

>  <pchembl>  (110) 
5.14

>  <Classification>  (110) 
1

>  <source>  (110) 
chembl_28

>  <SMILES>  (110) 
C=C1[C@H](OC(C)=O)[C@@H](OC(=O)c2ccccc2)C(=O)C(C)(C)/C=C/[C@H](C)C(=O)[C@@]2(OC(C)=O)C[C@H](C)[C@H](OC(C)=O)[C@@H]2[C@H]1OC(=O)c1ccccc1

>  <InChIKey>  (110) 
BBRCVBOBMMKRHD-DLDQNYCJSA-N

$$$$

     RDKit          2D

 37 41  0  0  0  0  0  0  0  0999 V2000
    2.7308  -29.4931    0.0000 C   0  0  0  0  0  0  0  0  0  0  0  0
    2.7297  -30.3127    0.0000 C   0  0  0  0  0  0  0  0  0  0  0  0
    3.4377  -30.7216    0.0000 C   0  0  0  0  0  0  0  0  0  0  0  0
    3.4359  -29.0843    0.0000 C   0  0  0  0  0  0  0  0  0  0  0  0
    4.1445  -29.4895    0.0000 C   0  0  0  0  0  0  0  0  0  0  0  0
    4.1434  -30.3102    0.0000 C   0  0  0  0  0  0  0  0  0  0  0  0
    4.8496  -30.7192    0.0000 C   0  0  0  0  0  0  0  0  0  0  0  0
    5.5615  -30.3122    0.0000 C   0  0  0  0  0  0  0  0  0  0  0  0
    5.5626  -29.4915    0.0000 N   0  0  0  0  0  0  0  0  0  0  0  0
    4.8519  -29.0779    0.0000 C   0  0  0  0  0  0  0  0  0  0  0  0
    6.2713  -29.0847    0.0000 C   0  0  0  0  0  0  0  0  0  0  0  0
    2.0230  -29.0847    0.0000 O   0  0  0  0  0  0  0  0  0  0  0  0
    1.3154  -29.4935    0.0000 C   0  0  0  0  0  0  0  0  0  0  0  0
    2.0216  -30.7207    0.0000 O   0  0  0  0  0  0  0  0  0  0  0  0
    1.3142  -30.3116    0.0000 C   0  0  0  0  0  0  0  0  0  0  0  0
    6.9780  -29.4950    0.0000 C   0  0  0  0  0  0  0  0  0  0  0  0
    7.6867  -29.0881    0.0000 C   0  0  0  0  0  0  0  0  0  0  0  0
    9.7809  -27.0203    0.0000 O   0  0  0  0  0  0  0  0  0  0  0  0
   10.4830  -26.6021    0.0000 C   0  0  0  0  0  0  0  0  0  0  0  0
   11.1955  -27.0022    0.0000 C   0  0  0  0  0  0  0  0  0  0  0  0
   11.1682  -25.3680    0.0000 C   0  0  0  0  0  0  0  0  0  0  0  0
   10.4695  -25.7878    0.0000 C   0  0  0  0  0  0  0  0  0  0  0  0
   11.8863  -25.7667    0.0000 C   0  0  0  0  0  0  0  0  0  0  0  0
   11.8931  -26.5818    0.0000 C   0  0  0  0  0  0  0  0  0  0  0  0
   12.5984  -26.9813    0.0000 O   0  0  0  0  0  0  0  0  0  0  0  0
   13.3015  -26.5701    0.0000 C   0  0  0  0  0  0  0  0  0  0  0  0
   13.2948  -25.7551    0.0000 C   0  0  0  0  0  0  0  0  0  0  0  0
   12.5850  -25.3511    0.0000 C   0  0  0  0  0  0  0  0  0  0  0  0
   14.0120  -26.9739    0.0000 O   0  0  0  0  0  0  0  0  0  0  0  0
   13.9996  -25.3414    0.0000 C   0  0  0  0  0  0  0  0  0  0  0  0
   12.5771  -24.5339    0.0000 C   0  0  0  0  0  0  0  0  0  0  0  0
    9.0900  -28.2556    0.0000 C   0  0  0  0  0  0  0  0  0  0  0  0
    9.7920  -27.8374    0.0000 C   0  0  0  0  0  0  0  0  0  0  0  0
    8.3950  -29.4917    0.0000 C   0  0  0  0  0  0  0  0  0  0  0  0
    9.0966  -29.0742    0.0000 C   0  0  0  0  0  0  0  0  0  0  0  0
    8.3677  -27.8575    0.0000 C   0  0  0  0  0  0  0  0  0  0  0  0
    7.6691  -28.2774    0.0000 C   0  0  0  0  0  0  0  0  0  0  0  0
  1  2  2  0
  2  3  1  0
  3  6  2  0
  5  4  2  0
  4  1  1  0
  5  6  1  0
  5 10  1  0
  6  7  1  0
  7  8  1  0
  8  9  1  0
  9 10  1  0
  9 11  1  0
  1 12  1  0
 12 13  1  0
  2 14  1  0
 14 15  1  0
 11 16  1  0
 16 17  1  0
 18 19  1  0
 19 20  2  0
 20 24  1  0
 23 21  1  0
 21 22  2  0
 22 19  1  0
 23 24  2  0
 23 28  1  0
 24 25  1  0
 25 26  1  0
 26 27  1  0
 27 28  2  0
 26 29  2  0
 27 30  1  0
 28 31  1  0
 32 33  1  0
 33 18  1  0
 17 34  2  0
 34 35  1  0
 35 32  2  0
 32 36  1  0
 36 37  2  0
 37 17  1  0
M  END
>  <Curated_InChIs>  (111) 
InChI=1S/C31H33NO5/c1-20-21(2)31(33)37-28-17-26(9-10-27(20)28)36-19-23-7-5-22(6-8-23)11-13-32-14-12-24-15-29(34-3)30(35-4)16-25(24)18-32/h5-10,15-17H,11-14,18-19H2,1-4H3

>  <threshold>  (111) 
5

>  <pchembl>  (111) 
6.72

>  <Classification>  (111) 
1

>  <source>  (111) 
chembl_28

>  <SMILES>  (111) 
COc1cc2c(cc1OC)CN(CCc1ccc(COc3ccc4c(C)c(C)c(=O)oc4c3)cc1)CC2

>  <InChIKey>  (111) 
BGWAMHCZOJDHAY-UHFFFAOYSA-N

$$$$

     RDKit          2D

 35 39  0  0  0  0  0  0  0  0999 V2000
   20.3261  -18.4219    0.0000 C   0  0  0  0  0  0  0  0  0  0  0  0
   20.3250  -19.2500    0.0000 C   0  0  0  0  0  0  0  0  0  0  0  0
   21.0404  -19.6633    0.0000 C   0  0  0  0  0  0  0  0  0  0  0  0
   21.0386  -18.0087    0.0000 C   0  0  0  0  0  0  0  0  0  0  0  0
   21.7547  -18.4183    0.0000 C   0  0  0  0  0  0  0  0  0  0  0  0
   21.7536  -19.2475    0.0000 C   0  0  0  0  0  0  0  0  0  0  0  0
   22.4672  -19.6609    0.0000 C   0  0  0  0  0  0  0  0  0  0  0  0
   23.1865  -19.2495    0.0000 C   0  0  0  0  0  0  0  0  0  0  0  0
   23.1877  -18.4203    0.0000 N   0  0  0  0  0  0  0  0  0  0  0  0
   22.4695  -18.0023    0.0000 C   0  0  0  0  0  0  0  0  0  0  0  0
   23.9038  -18.0091    0.0000 C   0  0  0  0  0  0  0  0  0  0  0  0
   24.6180  -18.4237    0.0000 C   0  0  0  0  0  0  0  0  0  0  0  0
   25.3341  -18.0125    0.0000 C   0  0  0  0  0  0  0  0  0  0  0  0
   19.6109  -18.0092    0.0000 O   0  0  0  0  0  0  0  0  0  0  0  0
   18.8958  -18.4222    0.0000 C   0  0  0  0  0  0  0  0  0  0  0  0
   19.6094  -19.6624    0.0000 O   0  0  0  0  0  0  0  0  0  0  0  0
   18.8946  -19.2489    0.0000 C   0  0  0  0  0  0  0  0  0  0  0  0
   26.0482  -18.4271    0.0000 C   0  0  0  0  0  0  0  0  0  0  0  0
   26.7644  -18.0161    0.0000 C   0  0  0  0  0  0  0  0  0  0  0  0
   27.4785  -18.4307    0.0000 O   0  0  0  0  0  0  0  0  0  0  0  0
   28.1957  -18.0212    0.0000 C   0  0  0  0  0  0  0  0  0  0  0  0
   28.9081  -18.4389    0.0000 C   0  0  0  0  0  0  0  0  0  0  0  0
   28.9111  -16.7873    0.0000 C   0  0  0  0  0  0  0  0  0  0  0  0
   28.1974  -17.1984    0.0000 C   0  0  0  0  0  0  0  0  0  0  0  0
   29.6293  -17.2035    0.0000 C   0  0  0  0  0  0  0  0  0  0  0  0
   29.6208  -18.0272    0.0000 C   0  0  0  0  0  0  0  0  0  0  0  0
   30.3260  -18.4440    0.0000 O   0  0  0  0  0  0  0  0  0  0  0  0
   31.0440  -18.0418    0.0000 C   0  0  0  0  0  0  0  0  0  0  0  0
   31.7543  -18.4630    0.0000 O   0  0  0  0  0  0  0  0  0  0  0  0
   30.3429  -16.7967    0.0000 C   0  0  0  0  0  0  0  0  0  0  0  0
   31.0491  -17.2169    0.0000 C   0  0  0  0  0  0  0  0  0  0  0  0
   31.7639  -16.8155    0.0000 C   0  0  0  0  0  0  0  0  0  0  0  0
   31.7738  -15.9940    0.0000 C   0  0  0  0  0  0  0  0  0  0  0  0
   31.0628  -15.5757    0.0000 C   0  0  0  0  0  0  0  0  0  0  0  0
   30.3509  -15.9795    0.0000 C   0  0  0  0  0  0  0  0  0  0  0  0
  1  2  2  0
  2  3  1  0
  3  6  2  0
  5  4  2  0
  4  1  1  0
  5  6  1  0
  5 10  1  0
  6  7  1  0
  7  8  1  0
  8  9  1  0
  9 10  1  0
  9 11  1  0
 11 12  1  0
 12 13  1  0
  1 14  1  0
 14 15  1  0
  2 16  1  0
 16 17  1  0
 13 18  1  0
 18 19  1  0
 19 20  1  0
 20 21  1  0
 21 22  2  0
 22 26  1  0
 25 23  1  0
 23 24  2  0
 24 21  1  0
 25 26  2  0
 25 30  1  0
 26 27  1  0
 27 28  1  0
 28 31  1  0
 28 29  2  0
 30 31  2  0
 31 32  1  0
 32 33  2  0
 33 34  1  0
 34 35  2  0
 35 30  1  0
M  END
>  <Curated_InChIs>  (112) 
InChI=1S/C29H31NO5/c1-32-27-16-20-12-14-30(19-21(20)17-28(27)33-2)13-6-3-7-15-34-22-10-11-24-23-8-4-5-9-25(23)29(31)35-26(24)18-22/h4-5,8-11,16-18H,3,6-7,12-15,19H2,1-2H3

>  <threshold>  (112) 
5

>  <pchembl>  (112) 
6.48

>  <Classification>  (112) 
1

>  <source>  (112) 
chembl_28

>  <SMILES>  (112) 
COc1cc2c(cc1OC)CN(CCCCCOc1ccc3c(c1)oc(=O)c1ccccc13)CC2

>  <InChIKey>  (112) 
BPLALYGKXIMETG-UHFFFAOYSA-N

$$$$

     RDKit          2D

 41 45  0  0  0  0  0  0  0  0999 V2000
   22.1710   -5.8727    0.0000 S   0  0  0  0  0  0  0  0  0  0  0  0
   22.8769   -6.2918    0.0000 C   0  0  0  0  0  0  0  0  0  0  0  0
   23.5921   -5.8881    0.0000 C   0  0  0  0  0  0  0  0  0  0  0  0
   24.2979   -6.3072    0.0000 N   0  0  0  0  0  0  0  0  0  0  0  0
   23.6014   -5.0652    0.0000 O   0  0  0  0  0  0  0  0  0  0  0  0
   25.0132   -5.9035    0.0000 C   0  0  0  0  0  0  0  0  0  0  0  0
   25.7596   -6.2416    0.0000 N   0  0  0  0  0  0  0  0  0  0  0  0
   26.3136   -5.6342    0.0000 N   0  0  0  0  0  0  0  0  0  0  0  0
   25.9099   -4.9189    0.0000 C   0  0  0  0  0  0  0  0  0  0  0  0
   25.1055   -5.0832    0.0000 C   0  0  0  0  0  0  0  0  0  0  0  0
   26.2498   -4.1771    0.0000 C   0  0  0  0  0  0  0  0  0  0  0  0
   27.0680   -4.0988    0.0000 C   0  0  0  0  0  0  0  0  0  0  0  0
   27.4112   -3.3541    0.0000 C   0  0  0  0  0  0  0  0  0  0  0  0
   26.9351   -2.6838    0.0000 C   0  0  0  0  0  0  0  0  0  0  0  0
   26.1119   -2.7630    0.0000 C   0  0  0  0  0  0  0  0  0  0  0  0
   25.7747   -3.5113    0.0000 C   0  0  0  0  0  0  0  0  0  0  0  0
   25.9191   -7.0403    0.0000 C   0  0  0  0  0  0  0  0  0  0  0  0
   25.3041   -7.5870    0.0000 C   0  0  0  0  0  0  0  0  0  0  0  0
   25.4661   -8.3872    0.0000 C   0  0  0  0  0  0  0  0  0  0  0  0
   26.2474   -8.6486    0.0000 C   0  0  0  0  0  0  0  0  0  0  0  0
   26.8645   -8.1002    0.0000 C   0  0  0  0  0  0  0  0  0  0  0  0
   26.6969   -7.2987    0.0000 C   0  0  0  0  0  0  0  0  0  0  0  0
   24.9556   -3.5897    0.0000 C   0  0  0  0  0  0  0  0  0  0  0  0
   27.2716   -1.9368    0.0000 C   0  0  0  0  0  0  0  0  0  0  0  0
   28.2248   -3.2773    0.0000 C   0  0  0  0  0  0  0  0  0  0  0  0
   21.4583   -6.2726    0.0000 C   0  0  0  0  0  0  0  0  0  0  0  0
   20.7594   -5.8534    0.0000 C   0  0  0  0  0  0  0  0  0  0  0  0
   20.0472   -6.2526    0.0000 C   0  0  0  0  0  0  0  0  0  0  0  0
   20.0368   -7.0706    0.0000 C   0  0  0  0  0  0  0  0  0  0  0  0
   20.7444   -7.4877    0.0000 C   0  0  0  0  0  0  0  0  0  0  0  0
   21.4537   -7.0861    0.0000 C   0  0  0  0  0  0  0  0  0  0  0  0
   19.3448   -5.8350    0.0000 N   0  0  0  0  0  0  0  0  0  0  0  0
   18.6319   -6.2345    0.0000 C   0  0  0  0  0  0  0  0  0  0  0  0
   17.9295   -5.8170    0.0000 C   0  0  0  0  0  0  0  0  0  0  0  0
   18.6215   -7.0517    0.0000 O   0  0  0  0  0  0  0  0  0  0  0  0
   17.9435   -5.0005    0.0000 C   0  0  0  0  0  0  0  0  0  0  0  0
   17.2418   -4.5830    0.0000 N   0  0  0  0  0  0  0  0  0  0  0  0
   16.5280   -4.9826    0.0000 C   0  0  0  0  0  0  0  0  0  0  0  0
   16.5202   -5.8040    0.0000 C   0  0  0  0  0  0  0  0  0  0  0  0
   17.2224   -6.2178    0.0000 C   0  0  0  0  0  0  0  0  0  0  0  0
   15.8087   -6.2061    0.0000 Br  0  0  0  0  0  0  0  0  0  0  0  0
  1  2  1  0
  2  3  1  0
  3  4  1  0
  3  5  2  0
  4  6  1  0
  6  7  1  0
  7  8  1  0
  8  9  2  0
  9 10  1  0
 10  6  2  0
 11 12  2  0
 12 13  1  0
 13 14  2  0
 14 15  1  0
 15 16  2  0
 16 11  1  0
  9 11  1  0
 17 18  2  0
 18 19  1  0
 19 20  2  0
 20 21  1  0
 21 22  2  0
 22 17  1  0
  7 17  1  0
 16 23  1  0
 14 24  1  0
 13 25  1  0
  1 26  1  0
 26 27  2  0
 27 28  1  0
 28 29  2  0
 29 30  1  0
 30 31  2  0
 31 26  1  0
 28 32  1  0
 32 33  1  0
 33 34  1  0
 33 35  2  0
 34 36  2  0
 36 37  1  0
 37 38  2  0
 38 39  1  0
 39 40  2  0
 40 34  1  0
 39 41  1  0
M  END
>  <Curated_InChIs>  (113) 
InChI=1S/C32H28BrN5O2S/c1-20-12-22(3)28(13-21(20)2)29-16-30(38(37-29)26-9-5-4-6-10-26)36-31(39)19-41-27-11-7-8-25(15-27)35-32(40)23-14-24(33)18-34-17-23/h4-18H,19H2,1-3H3,(H,35,40)(H,36,39)

>  <threshold>  (113) 
5

>  <pchembl>  (113) 
7.25, 8.22, 7.7, 8.05

>  <Classification>  (113) 
1

>  <source>  (113) 
chembl_28

>  <SMILES>  (113) 
Cc1cc(C)c(-c2cc(NC(=O)CSc3cccc(NC(=O)c4cncc(Br)c4)c3)n(-c3ccccc3)n2)cc1C

>  <InChIKey>  (113) 
BRQKWGBEIKPKER-UHFFFAOYSA-N

$$$$

     RDKit          2D

 27 30  0  0  0  0  0  0  0  0999 V2000
   35.5985   -3.5435    0.0000 C   0  0  0  0  0  0  0  0  0  0  0  0
   35.5974   -4.3630    0.0000 C   0  0  0  0  0  0  0  0  0  0  0  0
   36.3054   -4.7720    0.0000 C   0  0  0  0  0  0  0  0  0  0  0  0
   36.3037   -3.1346    0.0000 C   0  0  0  0  0  0  0  0  0  0  0  0
   37.0123   -3.5399    0.0000 C   0  0  0  0  0  0  0  0  0  0  0  0
   37.0111   -4.3606    0.0000 C   0  0  0  0  0  0  0  0  0  0  0  0
   37.7173   -4.7696    0.0000 C   0  0  0  0  0  0  0  0  0  0  0  0
   38.4292   -4.3626    0.0000 C   0  0  0  0  0  0  0  0  0  0  0  0
   38.4303   -3.5419    0.0000 N   0  0  0  0  0  0  0  0  0  0  0  0
   37.7196   -3.1283    0.0000 C   0  0  0  0  0  0  0  0  0  0  0  0
   39.1390   -3.1350    0.0000 C   0  0  0  0  0  0  0  0  0  0  0  0
   39.8458   -3.5453    0.0000 C   0  0  0  0  0  0  0  0  0  0  0  0
   40.5545   -3.1385    0.0000 C   0  0  0  0  0  0  0  0  0  0  0  0
   41.2612   -3.5488    0.0000 O   0  0  0  0  0  0  0  0  0  0  0  0
   41.9677   -3.1381    0.0000 C   0  0  0  0  0  0  0  0  0  0  0  0
   42.6759   -3.5458    0.0000 C   0  0  0  0  0  0  0  0  0  0  0  0
   42.6661   -1.9114    0.0000 C   0  0  0  0  0  0  0  0  0  0  0  0
   41.9630   -2.3238    0.0000 C   0  0  0  0  0  0  0  0  0  0  0  0
   43.3799   -2.3178    0.0000 C   0  0  0  0  0  0  0  0  0  0  0  0
   43.3779   -3.1329    0.0000 C   0  0  0  0  0  0  0  0  0  0  0  0
   44.0789   -3.5399    0.0000 O   0  0  0  0  0  0  0  0  0  0  0  0
   44.7864   -3.1364    0.0000 C   0  0  0  0  0  0  0  0  0  0  0  0
   44.7885   -2.3213    0.0000 C   0  0  0  0  0  0  0  0  0  0  0  0
   44.0830   -1.9097    0.0000 C   0  0  0  0  0  0  0  0  0  0  0  0
   45.4926   -3.5477    0.0000 O   0  0  0  0  0  0  0  0  0  0  0  0
   45.4976   -1.9151    0.0000 C   0  0  0  0  0  0  0  0  0  0  0  0
   44.0838   -1.0925    0.0000 C   0  0  0  0  0  0  0  0  0  0  0  0
  1  2  2  0
  2  3  1  0
  3  6  2  0
  5  4  2  0
  4  1  1  0
  5  6  1  0
  5 10  1  0
  6  7  1  0
  7  8  1  0
  8  9  1  0
  9 10  1  0
  9 11  1  0
 11 12  1  0
 12 13  1  0
 13 14  1  0
 14 15  1  0
 15 16  2  0
 16 20  1  0
 19 17  1  0
 17 18  2  0
 18 15  1  0
 19 20  2  0
 19 24  1  0
 20 21  1  0
 21 22  1  0
 22 23  1  0
 23 24  2  0
 22 25  2  0
 23 26  1  0
 24 27  1  0
M  END
>  <Curated_InChIs>  (114) 
InChI=1S/C23H25NO3/c1-16-17(2)23(25)27-22-14-20(8-9-21(16)22)26-13-5-11-24-12-10-18-6-3-4-7-19(18)15-24/h3-4,6-9,14H,5,10-13,15H2,1-2H3

>  <threshold>  (114) 
5

>  <pchembl>  (114) 
5.57

>  <Classification>  (114) 
1

>  <source>  (114) 
chembl_28

>  <SMILES>  (114) 
Cc1c(C)c2ccc(OCCCN3CCc4ccccc4C3)cc2oc1=O

>  <InChIKey>  (114) 
CACNJUZLFSDMHF-UHFFFAOYSA-N

$$$$

     RDKit          2D

 36 41  0  0  0  0  0  0  0  0999 V2000
    1.4604  -13.4283    0.0000 C   0  0  0  0  0  0  0  0  0  0  0  0
    2.1757  -13.8373    0.0000 C   0  0  0  0  0  0  0  0  0  0  0  0
    2.1745  -14.6704    0.0000 C   0  0  0  0  0  0  0  0  0  0  0  0
    2.8913  -15.0856    0.0000 S   0  0  0  0  0  0  0  0  0  0  0  0
    2.8938  -13.4196    0.0000 C   0  0  0  0  0  0  0  0  0  0  0  0
    3.6151  -13.8394    0.0000 C   0  0  0  0  0  0  0  0  0  0  0  0
    3.6139  -14.6682    0.0000 C   0  0  0  0  0  0  0  0  0  0  0  0
    4.3300  -15.0820    0.0000 C   0  0  0  0  0  0  0  0  0  0  0  0
    5.0477  -14.6680    0.0000 C   0  0  0  0  0  0  0  0  0  0  0  0
    5.0450  -13.8360    0.0000 C   0  0  0  0  0  0  0  0  0  0  0  0
    4.3285  -13.4259    0.0000 C   0  0  0  0  0  0  0  0  0  0  0  0
    5.7628  -15.0795    0.0000 N   0  0  0  0  0  0  0  0  0  0  0  0
    5.7640  -15.9045    0.0000 C   0  0  0  0  0  0  0  0  0  0  0  0
    6.4767  -14.6660    0.0000 C   0  0  0  0  0  0  0  0  0  0  0  0
    2.8963  -12.5939    0.0000 C   0  0  0  0  0  0  0  0  0  0  0  0
    3.5647  -12.1098    0.0000 C   0  0  0  0  0  0  0  0  0  0  0  0
    3.3097  -11.3244    0.0000 C   0  0  0  0  0  0  0  0  0  0  0  0
    2.4836  -11.3257    0.0000 C   0  0  0  0  0  0  0  0  0  0  0  0
    2.2309  -12.1120    0.0000 S   0  0  0  0  0  0  0  0  0  0  0  0
    2.0657  -10.6143    0.0000 C   0  0  0  0  0  0  0  0  0  0  0  0
    2.4729   -9.8968    0.0000 N   0  0  0  0  0  0  0  0  0  0  0  0
    1.2408  -10.6204    0.0000 O   0  0  0  0  0  0  0  0  0  0  0  0
    3.2978   -9.8906    0.0000 C   0  0  0  0  0  0  0  0  0  0  0  0
    2.0551   -9.1854    0.0000 C   0  0  0  0  0  0  0  0  0  0  0  0
    2.4623   -8.4679    0.0000 C   0  0  0  0  0  0  0  0  0  0  0  0
    3.7050   -9.1732    0.0000 C   0  0  0  0  0  0  0  0  0  0  0  0
    1.4622  -15.0811    0.0000 C   0  0  0  0  0  0  0  0  0  0  0  0
    0.0366  -15.8979    0.0000 C   0  0  0  0  0  0  0  0  0  0  0  0
    0.7483  -16.3110    0.0000 C   0  0  0  0  0  0  0  0  0  0  0  0
    1.4642  -15.9018    0.0000 C   0  0  0  0  0  0  0  0  0  0  0  0
    0.0408  -15.0757    0.0000 N   0  0  0  0  0  0  0  0  0  0  0  0
    0.7488  -14.6697    0.0000 C   0  0  0  0  0  0  0  0  0  0  0  0
    0.7511  -13.8581    0.0000 C   0  0  0  0  0  0  0  0  0  0  0  0
    0.0471  -13.4463    0.0000 C   0  0  0  0  0  0  0  0  0  0  0  0
   -0.6642  -13.8524    0.0000 C   0  0  0  0  0  0  0  0  0  0  0  0
   -0.6685  -14.6701    0.0000 C   0  0  0  0  0  0  0  0  0  0  0  0
 27  3  2  0
  2  1  2  0
  1 33  1  0
  2  3  1  0
  2  5  1  0
  3  4  1  0
  4  7  1  0
  6  5  2  0
  6  7  1  0
  7  8  2  0
  8  9  1  0
  9 10  1  0
 10 11  2  0
 11  6  1  0
  9 12  2  3
 12 13  1  0
 12 14  1  0
 16 17  1  0
 15 16  2  0
 17 18  2  0
 18 19  1  0
 19 15  1  0
  5 15  1  0
 18 20  1  0
 20 21  1  0
 20 22  2  0
 21 23  1  0
 21 24  1  0
 24 25  1  0
 23 26  1  0
 27 32  1  0
 27 30  1  0
 31 28  1  0
 28 29  1  0
 29 30  1  0
 31 32  1  0
 31 36  1  0
 32 33  2  0
 33 34  1  0
 34 35  1  0
 35 36  1  0
M  CHG  1  12   1
M  END
>  <Curated_InChIs>  (115) 
InChI=1S/C30H34N3OS2/c1-5-32(6-2)30(34)25-14-13-24(35-25)27-21-12-11-20(31(3)4)18-26(21)36-29-22-10-8-16-33-15-7-9-19(28(22)33)17-23(27)29/h11-14,17-18H,5-10,15-16H2,1-4H3

>  <threshold>  (115) 
5

>  <pchembl>  (115) 
5.0

>  <Classification>  (115) 
1

>  <source>  (115) 
chembl_28

>  <SMILES>  (115) 
CCN(CC)C(=O)c1ccc(-c2c3ccc(=[N+](C)C)cc-3sc3c4c5c(cc23)CCCN5CCC4)s1

>  <InChIKey>  (115) 
CCIQKCHEADXGIU-UHFFFAOYSA-N

$$$$

     RDKit          2D

 46 51  0  0  0  0  0  0  0  0999 V2000
    2.2790   -0.4642    0.0000 C   0  0  0  0  0  0  0  0  0  0  0  0
    2.9799    0.8507    0.0000 C   0  0  0  0  0  0  0  0  0  0  0  0
    2.2085    2.1458    0.0000 C   0  0  0  0  0  0  0  0  0  0  0  0
    0.7926   -0.5104    0.0000 C   0  0  0  0  0  0  0  0  0  0  0  0
   -0.0024    0.7406    0.0000 C   0  0  0  0  0  0  0  0  0  0  0  0
    0.7267    2.1084    0.0000 C   0  0  0  0  0  0  0  0  0  0  0  0
   -0.8003    2.0498    0.0000 C   0  0  0  0  0  0  0  0  0  0  0  0
   -2.5123    2.9624    0.0000 C   0  0  0  0  0  0  0  0  0  0  0  0
   -2.5467    1.4736    0.0000 C   0  0  0  0  0  0  0  0  0  0  0  0
   -1.4000    0.4997    0.0000 C   0  0  0  0  0  0  0  0  0  0  0  0
    0.5882   -1.9975    0.0000 O   0  0  0  0  0  0  0  0  0  0  0  0
   -0.4884   -0.3566    0.0000 C   0  0  0  0  0  0  0  0  0  0  0  0
   -1.7650   -0.9587    0.0000 O   0  0  0  0  0  0  0  0  0  0  0  0
   -1.1086   -2.3084    0.0000 C   0  0  0  0  0  0  0  0  0  0  0  0
   -1.9485   -3.5522    0.0000 C   0  0  0  0  0  0  0  0  0  0  0  0
   -0.1111   -2.3790    0.0000 O   0  0  0  0  0  0  0  0  0  0  0  0
   -3.4451   -3.4499    0.0000 C   0  0  0  0  0  0  0  0  0  0  0  0
   -4.2820   -4.6947    0.0000 C   0  0  0  0  0  0  0  0  0  0  0  0
   -3.6224   -6.0419    0.0000 C   0  0  0  0  0  0  0  0  0  0  0  0
   -2.1259   -6.1443    0.0000 C   0  0  0  0  0  0  0  0  0  0  0  0
   -1.2890   -4.8995    0.0000 C   0  0  0  0  0  0  0  0  0  0  0  0
    0.1852    3.4736    0.0000 O   0  0  0  0  0  0  0  0  0  0  0  0
   -1.2672    3.8739    0.0000 C   0  0  0  0  0  0  0  0  0  0  0  0
   -2.4093    4.2423    0.0000 C   0  0  0  0  0  0  0  0  0  0  0  0
   -0.3305    4.6239    0.0000 C   0  0  0  0  0  0  0  0  0  0  0  0
   -1.4709    0.7010    0.0000 O   0  0  0  0  0  0  0  0  0  0  0  0
   -2.9689    0.6096    0.0000 N   0  0  0  0  0  0  0  0  0  0  0  0
    1.7730   -2.9187    0.0000 C   0  0  0  0  0  0  0  0  0  0  0  0
    1.6368   -3.9094    0.0000 O   0  0  0  0  0  0  0  0  0  0  0  0
    2.8844   -2.4662    0.0000 C   0  0  0  0  0  0  0  0  0  0  0  0
    3.0733   -1.7377    0.0000 O   0  0  0  0  0  0  0  0  0  0  0  0
    4.5733   -1.6877    0.0000 C   0  0  0  0  0  0  0  0  0  0  0  0
    5.3674   -2.9611    0.0000 C   0  0  0  0  0  0  0  0  0  0  0  0
    5.1379   -0.6288    0.0000 O   0  0  0  0  0  0  0  0  0  0  0  0
    6.8667   -2.9133    0.0000 C   0  0  0  0  0  0  0  0  0  0  0  0
    7.6578   -4.1877    0.0000 C   0  0  0  0  0  0  0  0  0  0  0  0
    6.9497   -5.5100    0.0000 C   0  0  0  0  0  0  0  0  0  0  0  0
    5.4505   -5.5580    0.0000 C   0  0  0  0  0  0  0  0  0  0  0  0
    4.6594   -4.2836    0.0000 C   0  0  0  0  0  0  0  0  0  0  0  0
    2.7882    3.1965    0.0000 C   0  0  0  0  0  0  0  0  0  0  0  0
   -3.7541   -0.6536    0.0000 C   0  0  0  0  0  0  0  0  0  0  0  0
   -5.2060   -0.2769    0.0000 C   0  0  0  0  0  0  0  0  0  0  0  0
   -5.2965    1.2204    0.0000 C   0  0  0  0  0  0  0  0  0  0  0  0
   -3.9004    1.7690    0.0000 C   0  0  0  0  0  0  0  0  0  0  0  0
   -3.5922    2.9288    0.0000 O   0  0  0  0  0  0  0  0  0  0  0  0
   -3.3085   -1.7678    0.0000 O   0  0  0  0  0  0  0  0  0  0  0  0
  1  2  1  0
  1  4  1  0
  2  3  1  0
  3  6  1  0
  5  4  1  0
  5  6  1  0
  5 10  1  0
  6  7  1  0
  7  8  1  0
  8  9  1  1
  9 10  1  0
  4 11  1  6
  5 12  1  6
 10 13  1  1
 13 14  1  0
 14 15  1  0
 14 16  2  0
 15 17  2  0
 17 18  1  0
 18 19  2  0
 19 20  1  0
 20 21  2  0
 21 15  1  0
  6 22  1  1
  8 23  1  0
 22 23  1  0
 23 24  1  0
 23 25  1  0
  7 26  1  6
 26 27  1  0
 11 28  1  0
 28 29  2  0
 28 30  1  0
  1 31  1  6
 31 32  1  0
 32 33  1  0
 32 34  2  0
 33 35  2  0
 35 36  1  0
 36 37  2  0
 37 38  1  0
 38 39  2  0
 39 33  1  0
  3 40  1  6
 27 41  1  0
 41 42  1  0
 42 43  1  0
 43 44  1  0
 44 27  1  0
 44 45  2  0
 41 46  2  0
M  END
>  <Curated_InChIs>  (116) 
InChI=1S/C35H39NO10/c1-20-18-25(43-31(40)22-12-8-6-9-13-22)30(42-21(2)37)34(5)26(44-32(41)23-14-10-7-11-15-23)19-24-29(35(20,34)46-33(24,3)4)45-36-27(38)16-17-28(36)39/h6-15,20,24-26,29-30H,16-19H2,1-5H3

>  <threshold>  (116) 
5

>  <pchembl>  (116) 
6.54

>  <Classification>  (116) 
1

>  <source>  (116) 
chembl_28

>  <SMILES>  (116) 
CC(=O)O[C@H]1[C@@H](OC(=O)c2ccccc2)C[C@@H](C)[C@]23OC(C)(C)[C@H](C[C@H](OC(=O)c4ccccc4)[C@]12C)[C@H]3ON1C(=O)CCC1=O

>  <InChIKey>  (116) 
CEBQOGCIDLLPPG-LPWRDBNFSA-N

$$$$

     RDKit          2D

 44 48  0  0  0  0  0  0  0  0999 V2000
   -3.1082   -9.6292    0.0000 C   0  0  0  0  0  0  0  0  0  0  0  0
   -3.1082  -10.4466    0.0000 C   0  0  0  0  0  0  0  0  0  0  0  0
   -2.4020  -10.8484    0.0000 C   0  0  0  0  0  0  0  0  0  0  0  0
   -2.4020   -9.2135    0.0000 C   0  0  0  0  0  0  0  0  0  0  0  0
   -1.6960   -9.6292    0.0000 C   0  0  0  0  0  0  0  0  0  0  0  0
   -1.6950  -10.4466    0.0000 C   0  0  0  0  0  0  0  0  0  0  0  0
   -0.9929  -10.8475    0.0000 C   0  0  0  0  0  0  0  0  0  0  0  0
   -0.2782  -10.4447    0.0000 C   0  0  0  0  0  0  0  0  0  0  0  0
   -0.2792   -9.6273    0.0000 C   0  0  0  0  0  0  0  0  0  0  0  0
   -0.9974   -9.2133    0.0000 C   0  0  0  0  0  0  0  0  0  0  0  0
   -1.7042  -11.2549    0.0000 O   0  0  0  0  0  0  0  0  0  0  0  0
   -0.2863  -11.2549    0.0000 C   0  0  0  0  0  0  0  0  0  0  0  0
    0.4941  -11.0377    0.0000 C   0  0  0  0  0  0  0  0  0  0  0  0
    0.1108  -11.9521    0.0000 C   0  0  0  0  0  0  0  0  0  0  0  0
   -0.9622   -8.4008    0.0000 O   0  0  0  0  0  0  0  0  0  0  0  0
   -1.7042   -8.8164    0.0000 C   0  0  0  0  0  0  0  0  0  0  0  0
   -2.4032   -8.4007    0.0000 O   0  0  0  0  0  0  0  0  0  0  0  0
   -3.8105   -9.2198    0.0000 O   0  0  0  0  0  0  0  0  0  0  0  0
   -4.5156   -9.6326    0.0000 C   0  0  0  0  0  0  0  0  0  0  0  0
   -5.2228   -9.2233    0.0000 C   0  0  0  0  0  0  0  0  0  0  0  0
   -4.5148  -10.4594    0.0000 O   0  0  0  0  0  0  0  0  0  0  0  0
   -3.1191   -7.9907    0.0000 C   0  0  0  0  0  0  0  0  0  0  0  0
   -3.1202   -7.1640    0.0000 C   0  0  0  0  0  0  0  0  0  0  0  0
   -0.2298   -8.0212    0.0000 C   0  0  0  0  0  0  0  0  0  0  0  0
   -0.1940   -7.1952    0.0000 C   0  0  0  0  0  0  0  0  0  0  0  0
    0.5454   -6.8130    0.0000 C   0  0  0  0  0  0  0  0  0  0  0  0
    0.4711   -8.4683    0.0000 O   0  0  0  0  0  0  0  0  0  0  0  0
    0.5840   -5.9826    0.0000 C   0  0  0  0  0  0  0  0  0  0  0  0
    1.3240   -5.6051    0.0000 C   0  0  0  0  0  0  0  0  0  0  0  0
    1.3629   -4.7755    0.0000 C   0  0  0  0  0  0  0  0  0  0  0  0
    0.6625   -4.3261    0.0000 C   0  0  0  0  0  0  0  0  0  0  0  0
   -0.0786   -4.7122    0.0000 C   0  0  0  0  0  0  0  0  0  0  0  0
   -0.1138   -5.5406    0.0000 C   0  0  0  0  0  0  0  0  0  0  0  0
   -2.4027   -6.7533    0.0000 C   0  0  0  0  0  0  0  0  0  0  0  0
   -2.4034   -5.9274    0.0000 C   0  0  0  0  0  0  0  0  0  0  0  0
   -3.1206   -5.5143    0.0000 C   0  0  0  0  0  0  0  0  0  0  0  0
   -3.8383   -5.9330    0.0000 C   0  0  0  0  0  0  0  0  0  0  0  0
   -3.8338   -6.7575    0.0000 C   0  0  0  0  0  0  0  0  0  0  0  0
   -2.4023  -11.6797    0.0000 C   0  0  0  0  0  0  0  0  0  0  0  0
   -3.8267  -10.8645    0.0000 O   0  0  0  0  0  0  0  0  0  0  0  0
   -3.8242  -11.6958    0.0000 C   0  0  0  0  0  0  0  0  0  0  0  0
   -3.1029  -12.1092    0.0000 O   0  0  0  0  0  0  0  0  0  0  0  0
   -4.5428  -12.1136    0.0000 C   0  0  0  0  0  0  0  0  0  0  0  0
   -3.8380   -8.4081    0.0000 O   0  0  0  0  0  0  0  0  0  0  0  0
  9 10  1  0
 17 22  1  0
  5  6  1  0
 22 23  1  0
  6 11  1  1
 15 24  1  0
  8 12  1  0
 24 25  1  0
 11 12  1  0
 25 26  2  0
  1  2  1  0
 24 27  2  0
 12 13  1  0
 26 28  1  0
  1  4  1  0
 28 29  2  0
 12 14  1  0
 29 30  1  0
  2  3  1  0
 30 31  2  0
 10 15  1  1
 31 32  1  0
  3  6  1  0
 32 33  2  0
 33 28  1  0
  5 16  1  6
 23 34  2  0
  5  4  1  0
 34 35  1  0
  4 17  1  6
 35 36  2  0
  5 10  1  0
 36 37  1  0
  1 18  1  1
 37 38  2  0
 38 23  1  0
  6  7  1  0
  3 39  1  6
 18 19  1  0
  2 40  1  1
  7  8  1  0
 40 41  1  0
 19 20  1  0
 41 42  2  0
  8  9  1  1
 41 43  1  0
 19 21  2  0
 22 44  2  0
M  END
>  <Curated_InChIs>  (117) 
InChI=1S/C35H40O9/c1-21-29(40-22(2)36)30(41-23(3)37)31(43-32(39)25-15-11-8-12-16-25)34(6)27(19-26-20-35(21,34)44-33(26,4)5)42-28(38)18-17-24-13-9-7-10-14-24/h7-18,21,26-27,29-31H,19-20H2,1-6H3

>  <threshold>  (117) 
5

>  <pchembl>  (117) 
5.57

>  <Classification>  (117) 
1

>  <source>  (117) 
chembl_28

>  <SMILES>  (117) 
CC(=O)O[C@H]1[C@@H](OC(C)=O)[C@H](OC(=O)c2ccccc2)[C@@]2(C)[C@@H](OC(=O)/C=C/c3ccccc3)C[C@@H]3C[C@]2(OC3(C)C)[C@@H]1C

>  <InChIKey>  (117) 
CIFLUOFVGNEPDQ-RTTISVJASA-N

$$$$

     RDKit          2D

 41 46  0  0  0  0  0  0  0  0999 V2000
   25.9258   -2.4846    0.0000 C   0  0  0  0  0  0  0  0  0  0  0  0
   25.9247   -3.3082    0.0000 C   0  0  0  0  0  0  0  0  0  0  0  0
   26.6369   -3.7213    0.0000 C   0  0  0  0  0  0  0  0  0  0  0  0
   26.6351   -2.0757    0.0000 C   0  0  0  0  0  0  0  0  0  0  0  0
   27.3478   -2.4810    0.0000 C   0  0  0  0  0  0  0  0  0  0  0  0
   27.3526   -3.3037    0.0000 C   0  0  0  0  0  0  0  0  0  0  0  0
   28.1290   -2.2235    0.0000 C   0  0  0  0  0  0  0  0  0  0  0  0
   28.6141   -2.8870    0.0000 C   0  0  0  0  0  0  0  0  0  0  0  0
   28.1338   -3.5495    0.0000 C   0  0  0  0  0  0  0  0  0  0  0  0
   28.4674   -4.2987    0.0000 C   0  0  0  0  0  0  0  0  0  0  0  0
   29.2853   -4.3826    0.0000 C   0  0  0  0  0  0  0  0  0  0  0  0
   29.7684   -3.7153    0.0000 C   0  0  0  0  0  0  0  0  0  0  0  0
   29.4280   -2.9687    0.0000 C   0  0  0  0  0  0  0  0  0  0  0  0
   30.5857   -3.7958    0.0000 C   0  0  0  0  0  0  0  0  0  0  0  0
   30.9226   -4.5444    0.0000 C   0  0  0  0  0  0  0  0  0  0  0  0
   31.0620   -3.1276    0.0000 O   0  0  0  0  0  0  0  0  0  0  0  0
   31.7400   -4.6249    0.0000 S   0  0  0  0  0  0  0  0  0  0  0  0
   32.0810   -5.3735    0.0000 C   0  0  0  0  0  0  0  0  0  0  0  0
   32.8984   -5.4540    0.0000 C   0  0  0  0  0  0  0  0  0  0  0  0
   33.2353   -6.2026    0.0000 N   0  0  0  0  0  0  0  0  0  0  0  0
   33.3747   -4.7858    0.0000 O   0  0  0  0  0  0  0  0  0  0  0  0
   34.0526   -6.2831    0.0000 C   0  0  0  0  0  0  0  0  0  0  0  0
   34.4693   -6.9887    0.0000 N   0  0  0  0  0  0  0  0  0  0  0  0
   35.2718   -6.8099    0.0000 N   0  0  0  0  0  0  0  0  0  0  0  0
   35.3522   -5.9924    0.0000 C   0  0  0  0  0  0  0  0  0  0  0  0
   34.5995   -5.6647    0.0000 C   0  0  0  0  0  0  0  0  0  0  0  0
   36.0567   -5.5806    0.0000 C   0  0  0  0  0  0  0  0  0  0  0  0
   36.7672   -5.9865    0.0000 C   0  0  0  0  0  0  0  0  0  0  0  0
   37.4760   -5.5743    0.0000 C   0  0  0  0  0  0  0  0  0  0  0  0
   37.4714   -4.7521    0.0000 C   0  0  0  0  0  0  0  0  0  0  0  0
   36.7521   -4.3439    0.0000 C   0  0  0  0  0  0  0  0  0  0  0  0
   36.0504   -4.7627    0.0000 C   0  0  0  0  0  0  0  0  0  0  0  0
   34.1409   -7.7382    0.0000 C   0  0  0  0  0  0  0  0  0  0  0  0
   33.3235   -7.8281    0.0000 C   0  0  0  0  0  0  0  0  0  0  0  0
   32.9964   -8.5803    0.0000 C   0  0  0  0  0  0  0  0  0  0  0  0
   33.4815   -9.2390    0.0000 C   0  0  0  0  0  0  0  0  0  0  0  0
   34.3016   -9.1447    0.0000 C   0  0  0  0  0  0  0  0  0  0  0  0
   34.6291   -8.3924    0.0000 C   0  0  0  0  0  0  0  0  0  0  0  0
   35.3349   -4.3563    0.0000 C   0  0  0  0  0  0  0  0  0  0  0  0
   38.1802   -4.3341    0.0000 C   0  0  0  0  0  0  0  0  0  0  0  0
   38.1902   -5.9789    0.0000 C   0  0  0  0  0  0  0  0  0  0  0  0
  1  2  2  0
  2  3  1  0
  3  6  2  0
  5  4  2  0
  4  1  1  0
  5  6  1  0
  6  9  1  0
  8  7  1  0
  7  5  1  0
  8  9  2  0
  9 10  1  0
 10 11  2  0
 11 12  1  0
 12 13  2  0
 13  8  1  0
 12 14  1  0
 14 15  1  0
 14 16  2  0
 15 17  1  0
 17 18  1  0
 18 19  1  0
 19 20  1  0
 19 21  2  0
 20 22  1  0
 22 23  1  0
 23 24  1  0
 24 25  2  0
 25 26  1  0
 26 22  2  0
 27 28  2  0
 28 29  1  0
 29 30  2  0
 30 31  1  0
 31 32  2  0
 32 27  1  0
 25 27  1  0
 33 34  2  0
 34 35  1  0
 35 36  2  0
 36 37  1  0
 37 38  2  0
 38 33  1  0
 23 33  1  0
 32 39  1  0
 30 40  1  0
 29 41  1  0
M  END
>  <Curated_InChIs>  (118) 
InChI=1S/C35H31N3O2S/c1-22-15-24(3)31(16-23(22)2)32-19-34(38(37-32)28-10-5-4-6-11-28)36-35(40)21-41-20-33(39)26-13-14-30-27(18-26)17-25-9-7-8-12-29(25)30/h4-16,18-19H,17,20-21H2,1-3H3,(H,36,40)

>  <threshold>  (118) 
5

>  <pchembl>  (118) 
6.58, 7.24, 7.21, 6.81

>  <Classification>  (118) 
1

>  <source>  (118) 
chembl_28

>  <SMILES>  (118) 
Cc1cc(C)c(-c2cc(NC(=O)CSCC(=O)c3ccc4c(c3)Cc3ccccc3-4)n(-c3ccccc3)n2)cc1C

>  <InChIKey>  (118) 
CJIOSPRHOPVRKJ-UHFFFAOYSA-N

$$$$

     RDKit          2D

 44 48  0  0  0  0  0  0  0  0999 V2000
   -5.0779    5.2168    0.0000 C   0  0  0  0  0  0  0  0  0  0  0  0
   -4.9300    3.7369    0.0000 N   0  0  0  0  0  0  0  0  0  0  0  0
   -6.2772    3.1068    0.0000 C   0  0  0  0  0  0  0  0  0  0  0  0
   -7.2884    4.2146    0.0000 C   0  0  0  0  0  0  0  0  0  0  0  0
   -6.5472    5.5187    0.0000 C   0  0  0  0  0  0  0  0  0  0  0  0
   -4.1868    6.0205    0.0000 O   0  0  0  0  0  0  0  0  0  0  0  0
   -6.5117    1.9299    0.0000 O   0  0  0  0  0  0  0  0  0  0  0  0
   -8.7798    4.0476    0.0000 C   0  0  0  0  0  0  0  0  0  0  0  0
   -9.4792    2.7263    0.0000 C   0  0  0  0  0  0  0  0  0  0  0  0
  -10.9782    2.6720    0.0000 C   0  0  0  0  0  0  0  0  0  0  0  0
  -11.7747    3.9431    0.0000 C   0  0  0  0  0  0  0  0  0  0  0  0
  -11.0722    5.2684    0.0000 C   0  0  0  0  0  0  0  0  0  0  0  0
   -9.5732    5.3227    0.0000 C   0  0  0  0  0  0  0  0  0  0  0  0
   -7.1669    6.8856    0.0000 C   0  0  0  0  0  0  0  0  0  0  0  0
   -8.6397    7.1424    0.0000 C   0  0  0  0  0  0  0  0  0  0  0  0
   -9.1545    8.5513    0.0000 C   0  0  0  0  0  0  0  0  0  0  0  0
   -8.1918    9.7016    0.0000 C   0  0  0  0  0  0  0  0  0  0  0  0
   -6.7143    9.4430    0.0000 C   0  0  0  0  0  0  0  0  0  0  0  0
   -6.1995    8.0341    0.0000 C   0  0  0  0  0  0  0  0  0  0  0  0
  -11.6784    1.3445    0.0000 O   0  0  0  0  0  0  0  0  0  0  0  0
  -11.0398    0.3286    0.0000 C   0  0  0  0  0  0  0  0  0  0  0  0
  -13.2747    3.8919    0.0000 O   0  0  0  0  0  0  0  0  0  0  0  0
  -13.9105    4.9096    0.0000 C   0  0  0  0  0  0  0  0  0  0  0  0
   -5.7487   10.5920    0.0000 O   0  0  0  0  0  0  0  0  0  0  0  0
   -4.5669   10.3834    0.0000 C   0  0  0  0  0  0  0  0  0  0  0  0
   -8.7099   11.1102    0.0000 O   0  0  0  0  0  0  0  0  0  0  0  0
   -9.8922   11.3154    0.0000 C   0  0  0  0  0  0  0  0  0  0  0  0
   -3.6267    2.9927    0.0000 C   0  0  0  0  0  0  0  0  0  0  0  0
   -2.5905    3.5979    0.0000 O   0  0  0  0  0  0  0  0  0  0  0  0
   -3.6187    1.4919    0.0000 N   0  0  0  0  0  0  0  0  0  0  0  0
   -2.3155    0.7475    0.0000 C   0  0  0  0  0  0  0  0  0  0  0  0
   -2.3155   -0.7475    0.0000 C   0  0  0  0  0  0  0  0  0  0  0  0
   -1.0028   -1.5132    0.0000 C   0  0  0  0  0  0  0  0  0  0  0  0
   -1.0028    1.5132    0.0000 C   0  0  0  0  0  0  0  0  0  0  0  0
    0.2917    0.7475    0.0000 C   0  0  0  0  0  0  0  0  0  0  0  0
    0.2917   -0.7475    0.0000 C   0  0  0  0  0  0  0  0  0  0  0  0
    1.7138   -1.2033    0.0000 C   0  0  0  0  0  0  0  0  0  0  0  0
    2.5889    0.0182    0.0000 O   0  0  0  0  0  0  0  0  0  0  0  0
    1.7138    1.2033    0.0000 C   0  0  0  0  0  0  0  0  0  0  0  0
    2.0825    2.3453    0.0000 O   0  0  0  0  0  0  0  0  0  0  0  0
    2.1855   -2.6254    0.0000 C   0  0  0  0  0  0  0  0  0  0  0  0
    3.6552   -2.9294    0.0000 C   0  0  0  0  0  0  0  0  0  0  0  0
    4.1277   -4.3539    0.0000 C   0  0  0  0  0  0  0  0  0  0  0  0
    5.3028   -4.5970    0.0000 C   0  0  0  0  0  0  0  0  0  0  0  0
  1  2  1  0
  2  3  1  0
  3  4  1  0
  4  5  2  0
  5  1  1  0
  1  6  2  0
  3  7  2  0
  8  9  2  0
  9 10  1  0
 10 11  2  0
 11 12  1  0
 12 13  2  0
 13  8  1  0
  4  8  1  0
 14 15  2  0
 15 16  1  0
 16 17  2  0
 17 18  1  0
 18 19  2  0
 19 14  1  0
  5 14  1  0
 20 21  1  0
 10 20  1  0
 22 23  1  0
 11 22  1  0
 24 25  1  0
 18 24  1  0
 26 27  1  0
 17 26  1  0
  2 28  1  0
 28 29  2  0
 28 30  1  0
 30 31  1  0
 31 32  2  0
 32 33  1  0
 33 36  2  0
 35 34  2  0
 34 31  1  0
 35 36  1  0
 36 37  1  0
 37 38  1  0
 38 39  1  0
 39 35  1  0
 39 40  2  0
 37 41  1  0
 41 42  1  0
 42 43  1  0
 43 44  1  0
M  END
>  <Curated_InChIs>  (119) 
InChI=1S/C33H32N2O9/c1-6-7-8-23-21-12-11-20(17-22(21)32(38)44-23)34-33(39)35-30(36)28(18-9-13-24(40-2)26(15-18)42-4)29(31(35)37)19-10-14-25(41-3)27(16-19)43-5/h9-17,23H,6-8H2,1-5H3,(H,34,39)

>  <threshold>  (119) 
5

>  <pchembl>  (119) 
7.24

>  <Classification>  (119) 
1

>  <source>  (119) 
chembl_28

>  <SMILES>  (119) 
CCCCC1OC(=O)c2cc(NC(=O)N3C(=O)C(c4ccc(OC)c(OC)c4)=C(c4ccc(OC)c(OC)c4)C3=O)ccc21

>  <InChIKey>  (119) 
CJULHKRTFUNYTB-UHFFFAOYSA-N

$$$$

     RDKit          2D

 47 49  0  0  0  0  0  0  0  0999 V2000
    8.3494  -21.3832    0.0000 C   0  0  0  0  0  0  0  0  0  0  0  0
    7.9449  -22.0931    0.0000 C   0  0  0  0  0  0  0  0  0  0  0  0
    8.7619  -22.0884    0.0000 C   0  0  0  0  0  0  0  0  0  0  0  0
    5.9714  -22.9135    0.0000 C   0  0  0  0  0  0  0  0  0  0  0  0
    6.5466  -21.5147    0.0000 C   0  0  0  0  0  0  0  0  0  0  0  0
    6.5467  -23.4887    0.0000 C   0  0  0  0  0  0  0  0  0  0  0  0
    7.3663  -23.4887    0.0000 C   0  0  0  0  0  0  0  0  0  0  0  0
    7.9456  -22.9135    0.0000 C   0  0  0  0  0  0  0  0  0  0  0  0
    7.3663  -21.5146    0.0000 C   0  0  0  0  0  0  0  0  0  0  0  0
    3.3059  -21.9238    0.0000 C   0  0  0  0  0  0  0  0  0  0  0  0
    3.7928  -21.2651    0.0000 C   0  0  0  0  0  0  0  0  0  0  0  0
    3.7860  -22.5947    0.0000 C   0  0  0  0  0  0  0  0  0  0  0  0
    3.3818  -23.3054    0.0000 O   0  0  0  0  0  0  0  0  0  0  0  0
    4.1548  -20.8104    0.0000 O   0  0  0  0  0  0  0  0  0  0  0  0
    4.5723  -22.3399    0.0000 C   0  0  0  0  0  0  0  0  0  0  0  0
    4.5724  -21.5202    0.0000 C   0  0  0  0  0  0  0  0  0  0  0  0
    5.1490  -20.9436    0.0000 C   0  0  0  0  0  0  0  0  0  0  0  0
    5.1491  -22.9165    0.0000 C   0  0  0  0  0  0  0  0  0  0  0  0
    6.5454  -22.3398    0.0000 C   0  0  0  0  0  0  0  0  0  0  0  0
    5.9686  -20.9435    0.0000 C   0  0  0  0  0  0  0  0  0  0  0  0
    4.8362  -20.1886    0.0000 O   0  0  0  0  0  0  0  0  0  0  0  0
    6.2813  -20.1885    0.0000 C   0  0  0  0  0  0  0  0  0  0  0  0
    8.7001  -23.2273    0.0000 O   0  0  0  0  0  0  0  0  0  0  0  0
    6.2340  -24.2437    0.0000 O   0  0  0  0  0  0  0  0  0  0  0  0
    6.6459  -24.9497    0.0000 C   0  0  0  0  0  0  0  0  0  0  0  0
    6.2406  -25.6594    0.0000 C   0  0  0  0  0  0  0  0  0  0  0  0
    7.4630  -24.9459    0.0000 O   0  0  0  0  0  0  0  0  0  0  0  0
    7.7851  -24.1899    0.0000 O   0  0  0  0  0  0  0  0  0  0  0  0
    2.5646  -23.3109    0.0000 C   0  0  0  0  0  0  0  0  0  0  0  0
    2.1608  -24.0214    0.0000 C   0  0  0  0  0  0  0  0  0  0  0  0
    2.1512  -22.6060    0.0000 O   0  0  0  0  0  0  0  0  0  0  0  0
    4.8378  -23.6721    0.0000 O   0  0  0  0  0  0  0  0  0  0  0  0
    4.8330  -24.4868    0.0000 C   0  0  0  0  0  0  0  0  0  0  0  0
    5.5383  -24.8996    0.0000 O   0  0  0  0  0  0  0  0  0  0  0  0
    4.1229  -24.8912    0.0000 C   0  0  0  0  0  0  0  0  0  0  0  0
    1.3435  -24.0219    0.0000 C   0  0  0  0  0  0  0  0  0  0  0  0
    0.9398  -24.7315    0.0000 C   0  0  0  0  0  0  0  0  0  0  0  0
    1.3532  -25.4374    0.0000 C   0  0  0  0  0  0  0  0  0  0  0  0
    2.1746  -25.4292    0.0000 C   0  0  0  0  0  0  0  0  0  0  0  0
    2.5746  -24.7190    0.0000 C   0  0  0  0  0  0  0  0  0  0  0  0
    2.7240  -21.3419    0.0000 C   0  0  0  0  0  0  0  0  0  0  0  0
    2.5960  -22.3283    0.0000 O   0  0  0  0  0  0  0  0  0  0  0  0
    8.6022  -24.1778    0.0000 C   0  0  0  0  0  0  0  0  0  0  0  0
    9.0213  -24.8794    0.0000 C   0  0  0  0  0  0  0  0  0  0  0  0
    9.0003  -23.4641    0.0000 O   0  0  0  0  0  0  0  0  0  0  0  0
    8.6233  -25.5931    0.0000 C   0  0  0  0  0  0  0  0  0  0  0  0
    9.8384  -24.8672    0.0000 C   0  0  0  0  0  0  0  0  0  0  0  0
  2  1  1  0
  3  2  1  0
  4  6  1  0
  6  7  1  0
  7  8  1  0
  8  2  1  0
  2  9  1  0
  9  5  2  0
 16 11  1  0
 11 10  1  0
 10 12  1  0
 12 15  1  0
 12 13  1  1
 16 14  1  1
 15 16  1  0
 16 17  1  0
 15 18  1  1
 18  4  1  0
  4 19  2  0
  5 20  1  0
 20 17  1  0
 17 21  2  0
 20 22  1  1
  8 23  2  0
  6 24  1  1
 24 25  1  0
 25 26  1  0
 25 27  2  0
  7 28  1  6
 13 29  1  0
 29 30  1  0
 29 31  2  0
 18 32  1  6
 32 33  1  0
 33 34  2  0
 33 35  1  0
 30 36  2  0
 36 37  1  0
 37 38  2  0
 38 39  1  0
 39 40  2  0
 40 30  1  0
 10 41  1  1
 10 42  1  0
 28 43  1  0
 43 44  1  0
 43 45  2  0
 44 46  1  0
 44 47  1  0
M  END
>  <Curated_InChIs>  (120) 
InChI=1S/C35H44O12/c1-18(2)31(40)46-27-26(45-22(6)37)20(4)25(44-21(5)36)24-30(47-32(41)23-13-11-10-12-14-23)34(9,42)17-35(24,43)28(38)19(3)15-16-33(7,8)29(27)39/h10-16,18-19,24-27,30,42-43H,4,17H2,1-3,5-9H3

>  <threshold>  (120) 
5

>  <pchembl>  (120) 
5.3

>  <Classification>  (120) 
1

>  <source>  (120) 
chembl_28

>  <SMILES>  (120) 
C=C1[C@H](OC(C)=O)[C@@H](OC(=O)C(C)C)C(=O)C(C)(C)/C=C/[C@H](C)C(=O)[C@@]2(O)C[C@@](C)(O)[C@H](OC(=O)c3ccccc3)[C@@H]2[C@H]1OC(C)=O

>  <InChIKey>  (120) 
CNYSRFLKOQLLFE-GIEUSPAQSA-N

$$$$

     RDKit          2D

 36 40  0  0  0  0  0  0  0  0999 V2000
   40.7951  -20.9650    0.0000 O   0  0  0  0  0  0  0  0  0  0  0  0
   41.5018  -21.3753    0.0000 C   0  0  0  0  0  0  0  0  0  0  0  0
   41.4984  -22.1925    0.0000 C   0  0  0  0  0  0  0  0  0  0  0  0
   42.9134  -21.3743    0.0000 C   0  0  0  0  0  0  0  0  0  0  0  0
   42.2069  -20.9678    0.0000 C   0  0  0  0  0  0  0  0  0  0  0  0
   42.9140  -22.1958    0.0000 C   0  0  0  0  0  0  0  0  0  0  0  0
   42.2049  -22.5978    0.0000 C   0  0  0  0  0  0  0  0  0  0  0  0
   42.1986  -23.4084    0.0000 O   0  0  0  0  0  0  0  0  0  0  0  0
   42.8996  -23.8231    0.0000 C   0  0  0  0  0  0  0  0  0  0  0  0
   43.6087  -23.4211    0.0000 C   0  0  0  0  0  0  0  0  0  0  0  0
   43.6167  -22.6043    0.0000 C   0  0  0  0  0  0  0  0  0  0  0  0
   42.8921  -24.6402    0.0000 O   0  0  0  0  0  0  0  0  0  0  0  0
   44.3128  -23.8359    0.0000 C   0  0  0  0  0  0  0  0  0  0  0  0
   44.3271  -22.2003    0.0000 C   0  0  0  0  0  0  0  0  0  0  0  0
   39.3797  -20.9616    0.0000 C   0  0  0  0  0  0  0  0  0  0  0  0
   40.0864  -21.3719    0.0000 C   0  0  0  0  0  0  0  0  0  0  0  0
   33.7180  -20.1367    0.0000 C   0  0  0  0  0  0  0  0  0  0  0  0
   33.7169  -20.9562    0.0000 C   0  0  0  0  0  0  0  0  0  0  0  0
   34.4249  -21.3652    0.0000 C   0  0  0  0  0  0  0  0  0  0  0  0
   34.4232  -19.7278    0.0000 C   0  0  0  0  0  0  0  0  0  0  0  0
   35.1318  -20.1331    0.0000 C   0  0  0  0  0  0  0  0  0  0  0  0
   35.1306  -20.9538    0.0000 C   0  0  0  0  0  0  0  0  0  0  0  0
   35.8368  -21.3628    0.0000 C   0  0  0  0  0  0  0  0  0  0  0  0
   36.5487  -20.9558    0.0000 C   0  0  0  0  0  0  0  0  0  0  0  0
   36.5498  -20.1351    0.0000 N   0  0  0  0  0  0  0  0  0  0  0  0
   35.8391  -19.7215    0.0000 C   0  0  0  0  0  0  0  0  0  0  0  0
   37.2585  -19.7282    0.0000 C   0  0  0  0  0  0  0  0  0  0  0  0
   37.9653  -20.1385    0.0000 C   0  0  0  0  0  0  0  0  0  0  0  0
   33.0102  -19.7283    0.0000 O   0  0  0  0  0  0  0  0  0  0  0  0
   32.3026  -20.1370    0.0000 C   0  0  0  0  0  0  0  0  0  0  0  0
   33.0089  -21.3643    0.0000 O   0  0  0  0  0  0  0  0  0  0  0  0
   32.3015  -20.9551    0.0000 C   0  0  0  0  0  0  0  0  0  0  0  0
   37.9616  -20.9550    0.0000 C   0  0  0  0  0  0  0  0  0  0  0  0
   38.6675  -21.3652    0.0000 C   0  0  0  0  0  0  0  0  0  0  0  0
   39.3766  -20.1369    0.0000 C   0  0  0  0  0  0  0  0  0  0  0  0
   38.6701  -19.7303    0.0000 C   0  0  0  0  0  0  0  0  0  0  0  0
  1  2  1  0
  2  3  2  0
  3  7  1  0
  6  4  1  0
  4  5  2  0
  5  2  1  0
  6  7  2  0
  6 11  1  0
  7  8  1  0
  8  9  1  0
  9 10  1  0
 10 11  2  0
  9 12  2  0
 10 13  1  0
 11 14  1  0
 15 16  1  0
 16  1  1  0
 17 18  2  0
 18 19  1  0
 19 22  2  0
 21 20  2  0
 20 17  1  0
 21 22  1  0
 21 26  1  0
 22 23  1  0
 23 24  1  0
 24 25  1  0
 25 26  1  0
 25 27  1  0
 27 28  1  0
 17 29  1  0
 29 30  1  0
 18 31  1  0
 31 32  1  0
 28 33  2  0
 33 34  1  0
 34 15  2  0
 15 35  1  0
 35 36  2  0
 36 28  1  0
M  END
>  <Curated_InChIs>  (121) 
InChI=1S/C30H31NO5/c1-19-20(2)30(32)36-27-15-25(9-10-26(19)27)35-18-22-7-5-21(6-8-22)16-31-12-11-23-13-28(33-3)29(34-4)14-24(23)17-31/h5-10,13-15H,11-12,16-18H2,1-4H3

>  <threshold>  (121) 
5

>  <pchembl>  (121) 
6.72

>  <Classification>  (121) 
1

>  <source>  (121) 
chembl_28

>  <SMILES>  (121) 
COc1cc2c(cc1OC)CN(Cc1ccc(COc3ccc4c(C)c(C)c(=O)oc4c3)cc1)CC2

>  <InChIKey>  (121) 
CPPMZZSHAZCFJY-UHFFFAOYSA-N

$$$$

     RDKit          2D

 33 37  0  0  0  0  0  0  0  0999 V2000
   15.4195   -7.5747    0.0000 C   0  0  0  0  0  0  0  0  0  0  0  0
   16.2120   -7.7893    0.0000 N   0  0  0  0  0  0  0  0  0  0  0  0
   16.6599   -7.1005    0.0000 C   0  0  0  0  0  0  0  0  0  0  0  0
   16.1417   -6.4626    0.0000 N   0  0  0  0  0  0  0  0  0  0  0  0
   15.3762   -6.7558    0.0000 N   0  0  0  0  0  0  0  0  0  0  0  0
   14.7861   -8.0935    0.0000 C   0  0  0  0  0  0  0  0  0  0  0  0
   13.9750   -8.2220    0.0000 C   0  0  0  0  0  0  0  0  0  0  0  0
   14.4898   -8.8608    0.0000 C   0  0  0  0  0  0  0  0  0  0  0  0
   17.4801   -7.0570    0.0000 S   0  0  0  0  0  0  0  0  0  0  0  0
   17.8505   -6.3245    0.0000 C   0  0  0  0  0  0  0  0  0  0  0  0
   18.6706   -6.2810    0.0000 C   0  0  0  0  0  0  0  0  0  0  0  0
   19.0452   -5.5485    0.0000 N   0  0  0  0  0  0  0  0  0  0  0  0
   19.1204   -6.9701    0.0000 O   0  0  0  0  0  0  0  0  0  0  0  0
   19.8653   -5.5050    0.0000 C   0  0  0  0  0  0  0  0  0  0  0  0
   20.3788   -6.1434    0.0000 C   0  0  0  0  0  0  0  0  0  0  0  0
   21.0837   -5.8458    0.0000 C   0  0  0  0  0  0  0  0  0  0  0  0
   21.0403   -5.0256    0.0000 N   0  0  0  0  0  0  0  0  0  0  0  0
   20.3085   -4.8149    0.0000 N   0  0  0  0  0  0  0  0  0  0  0  0
   20.0241   -4.0474    0.0000 C   0  0  0  0  0  0  0  0  0  0  0  0
   20.5498   -3.4128    0.0000 C   0  0  0  0  0  0  0  0  0  0  0  0
   20.2602   -2.6438    0.0000 C   0  0  0  0  0  0  0  0  0  0  0  0
   19.4493   -2.5082    0.0000 C   0  0  0  0  0  0  0  0  0  0  0  0
   18.9288   -3.1478    0.0000 C   0  0  0  0  0  0  0  0  0  0  0  0
   19.2171   -3.9143    0.0000 C   0  0  0  0  0  0  0  0  0  0  0  0
   21.7781   -6.2815    0.0000 C   0  0  0  0  0  0  0  0  0  0  0  0
   21.7466   -7.1034    0.0000 C   0  0  0  0  0  0  0  0  0  0  0  0
   22.4420   -7.5377    0.0000 C   0  0  0  0  0  0  0  0  0  0  0  0
   23.1694   -7.1554    0.0000 C   0  0  0  0  0  0  0  0  0  0  0  0
   23.1971   -6.3303    0.0000 C   0  0  0  0  0  0  0  0  0  0  0  0
   22.5009   -5.8956    0.0000 C   0  0  0  0  0  0  0  0  0  0  0  0
   23.9222   -5.9415    0.0000 C   0  0  0  0  0  0  0  0  0  0  0  0
   23.8663   -7.5889    0.0000 C   0  0  0  0  0  0  0  0  0  0  0  0
   21.0197   -7.4848    0.0000 C   0  0  0  0  0  0  0  0  0  0  0  0
  1  2  2  0
  2  3  1  0
  3  4  2  0
  4  5  1  0
  5  1  1  0
  7  6  1  0
  8  7  1  0
  6  8  1  0
  1  6  1  0
  3  9  1  0
  9 10  1  0
 10 11  1  0
 11 12  1  0
 11 13  2  0
 12 14  1  0
 14 15  2  0
 15 16  1  0
 16 17  2  0
 17 18  1  0
 18 14  1  0
 19 20  2  0
 20 21  1  0
 21 22  2  0
 22 23  1  0
 23 24  2  0
 24 19  1  0
 18 19  1  0
 25 26  2  0
 26 27  1  0
 27 28  2  0
 28 29  1  0
 29 30  2  0
 30 25  1  0
 16 25  1  0
 29 31  1  0
 28 32  1  0
 26 33  1  0
M  END
>  <Curated_InChIs>  (122) 
InChI=1S/C25H26N6OS/c1-15-11-17(3)20(12-16(15)2)21-13-22(31(30-21)19-7-5-4-6-8-19)26-23(32)14-33-25-27-24(28-29-25)18-9-10-18/h4-8,11-13,18H,9-10,14H2,1-3H3,(H,26,32)(H,27,28,29)

>  <threshold>  (122) 
5

>  <pchembl>  (122) 
7.23, 7.0, 6.71, 6.2

>  <Classification>  (122) 
1

>  <source>  (122) 
chembl_28

>  <SMILES>  (122) 
Cc1cc(C)c(-c2cc(NC(=O)CSc3n[nH]c(C4CC4)n3)n(-c3ccccc3)n2)cc1C

>  <InChIKey>  (122) 
DBAZHNMKICPZRD-UHFFFAOYSA-N

$$$$

     RDKit          2D

 29 33  0  0  0  0  0  0  0  0999 V2000
   16.6891  -24.2970    0.0000 C   0  0  0  0  0  0  0  0  0  0  0  0
   16.6880  -25.1165    0.0000 C   0  0  0  0  0  0  0  0  0  0  0  0
   17.3960  -25.5255    0.0000 C   0  0  0  0  0  0  0  0  0  0  0  0
   17.3942  -23.8881    0.0000 N   0  0  0  0  0  0  0  0  0  0  0  0
   18.1033  -24.2924    0.0000 C   0  0  0  0  0  0  0  0  0  0  0  0
   18.1036  -25.1124    0.0000 C   0  0  0  0  0  0  0  0  0  0  0  0
   18.8831  -24.0389    0.0000 S   0  0  0  0  0  0  0  0  0  0  0  0
   19.3653  -24.7020    0.0000 C   0  0  0  0  0  0  0  0  0  0  0  0
   18.8811  -25.3621    0.0000 C   0  0  0  0  0  0  0  0  0  0  0  0
   19.2108  -26.1093    0.0000 N   0  0  0  0  0  0  0  0  0  0  0  0
   20.0244  -26.1976    0.0000 C   0  0  0  0  0  0  0  0  0  0  0  0
   20.5072  -25.5327    0.0000 N   0  0  0  0  0  0  0  0  0  0  0  0
   20.1748  -24.7882    0.0000 C   0  0  0  0  0  0  0  0  0  0  0  0
   15.9813  -23.8885    0.0000 C   0  0  0  0  0  0  0  0  0  0  0  0
   17.3979  -26.3426    0.0000 C   0  0  0  0  0  0  0  0  0  0  0  0
   20.6553  -24.1271    0.0000 N   0  0  0  0  0  0  0  0  0  0  0  0
   21.4646  -24.2172    0.0000 C   0  0  0  0  0  0  0  0  0  0  0  0
   21.9446  -23.5602    0.0000 C   0  0  0  0  0  0  0  0  0  0  0  0
   21.6160  -22.8116    0.0000 N   0  0  0  0  0  0  0  0  0  0  0  0
   20.8026  -22.7240    0.0000 C   0  0  0  0  0  0  0  0  0  0  0  0
   20.3177  -23.3850    0.0000 C   0  0  0  0  0  0  0  0  0  0  0  0
   22.0990  -22.1524    0.0000 C   0  0  0  0  0  0  0  0  0  0  0  0
   22.9114  -22.2410    0.0000 C   0  0  0  0  0  0  0  0  0  0  0  0
   23.2363  -22.9882    0.0000 C   0  0  0  0  0  0  0  0  0  0  0  0
   24.0478  -23.0771    0.0000 C   0  0  0  0  0  0  0  0  0  0  0  0
   24.5317  -22.4175    0.0000 C   0  0  0  0  0  0  0  0  0  0  0  0
   24.1981  -21.6668    0.0000 C   0  0  0  0  0  0  0  0  0  0  0  0
   23.3875  -21.5815    0.0000 C   0  0  0  0  0  0  0  0  0  0  0  0
   22.7516  -23.6462    0.0000 Cl  0  0  0  0  0  0  0  0  0  0  0  0
  1  2  2  0
  2  3  1  0
  3  6  2  0
  5  4  2  0
  4  1  1  0
  5  6  1  0
  6  9  1  0
  8  7  1  0
  7  5  1  0
  8  9  2  0
  9 10  1  0
 10 11  2  0
 11 12  1  0
 12 13  2  0
 13  8  1  0
  1 14  1  0
  3 15  1  0
 13 16  1  0
 16 17  1  0
 16 21  1  0
 17 18  1  0
 18 19  1  0
 19 20  1  0
 20 21  1  0
 19 22  1  0
 22 23  1  0
 23 24  2  0
 24 25  1  0
 25 26  2  0
 26 27  1  0
 27 28  2  0
 28 23  1  0
 24 29  1  0
M  END
>  <Curated_InChIs>  (123) 
InChI=1S/C22H22ClN5S/c1-14-11-15(2)26-22-18(14)19-20(29-22)21(25-13-24-19)28-9-7-27(8-10-28)12-16-5-3-4-6-17(16)23/h3-6,11,13H,7-10,12H2,1-2H3

>  <threshold>  (123) 
5

>  <pchembl>  (123) 
5.55

>  <Classification>  (123) 
1

>  <source>  (123) 
chembl_28

>  <SMILES>  (123) 
Cc1cc(C)c2c(n1)sc1c(N3CCN(Cc4ccccc4Cl)CC3)ncnc12

>  <InChIKey>  (123) 
DPWHWIYFNKEXGB-UHFFFAOYSA-N

$$$$

     RDKit          2D

 37 40  0  0  0  0  0  0  0  0999 V2000
   -2.3155    0.7475    0.0000 C   0  0  0  0  0  0  0  0  0  0  0  0
   -2.3155   -0.7475    0.0000 C   0  0  0  0  0  0  0  0  0  0  0  0
   -1.0028   -1.5132    0.0000 C   0  0  0  0  0  0  0  0  0  0  0  0
   -1.0028    1.5132    0.0000 C   0  0  0  0  0  0  0  0  0  0  0  0
    0.2917    0.7475    0.0000 C   0  0  0  0  0  0  0  0  0  0  0  0
    0.2917   -0.7475    0.0000 C   0  0  0  0  0  0  0  0  0  0  0  0
    1.7138   -1.2033    0.0000 N   0  0  0  0  0  0  0  0  0  0  0  0
    2.5889    0.0182    0.0000 C   0  0  0  0  0  0  0  0  0  0  0  0
    1.7138    1.2033    0.0000 C   0  0  0  0  0  0  0  0  0  0  0  0
    3.7889    0.0269    0.0000 O   0  0  0  0  0  0  0  0  0  0  0  0
    2.1749    2.6315    0.0000 C   0  0  0  0  0  0  0  0  0  0  0  0
    3.5538    3.1767    0.0000 N   0  0  0  0  0  0  0  0  0  0  0  0
    3.4417    4.6725    0.0000 C   0  0  0  0  0  0  0  0  0  0  0  0
    1.9845    5.0282    0.0000 C   0  0  0  0  0  0  0  0  0  0  0  0
    1.1959    3.7522    0.0000 S   0  0  0  0  0  0  0  0  0  0  0  0
    4.3571    5.4484    0.0000 O   0  0  0  0  0  0  0  0  0  0  0  0
    1.4135    6.4134    0.0000 C   0  0  0  0  0  0  0  0  0  0  0  0
   -0.0740    6.6128    0.0000 C   0  0  0  0  0  0  0  0  0  0  0  0
   -0.6477    7.9987    0.0000 C   0  0  0  0  0  0  0  0  0  0  0  0
   -2.4747    5.6192    0.0000 C   0  0  0  0  0  0  0  0  0  0  0  0
   -0.9876    5.4230    0.0000 C   0  0  0  0  0  0  0  0  0  0  0  0
    4.8231    2.3809    0.0000 C   0  0  0  0  0  0  0  0  0  0  0  0
    6.1498    3.0826    0.0000 C   0  0  0  0  0  0  0  0  0  0  0  0
   -3.0483    7.0052    0.0000 C   0  0  0  0  0  0  0  0  0  0  0  0
   -2.1348    8.1950    0.0000 C   0  0  0  0  0  0  0  0  0  0  0  0
   -3.3863    4.4269    0.0000 O   0  0  0  0  0  0  0  0  0  0  0  0
   -2.9258    3.3188    0.0000 C   0  0  0  0  0  0  0  0  0  0  0  0
   -4.5359    7.2046    0.0000 O   0  0  0  0  0  0  0  0  0  0  0  0
   -4.9932    8.3141    0.0000 C   0  0  0  0  0  0  0  0  0  0  0  0
   -2.7059    9.5829    0.0000 O   0  0  0  0  0  0  0  0  0  0  0  0
   -1.9738   10.5337    0.0000 C   0  0  0  0  0  0  0  0  0  0  0  0
    7.4214    2.2853    0.0000 C   0  0  0  0  0  0  0  0  0  0  0  0
    8.7480    2.9870    0.0000 N   0  0  0  0  0  0  0  0  0  0  0  0
   10.0196    2.1897    0.0000 C   0  0  0  0  0  0  0  0  0  0  0  0
    8.8063    4.4867    0.0000 C   0  0  0  0  0  0  0  0  0  0  0  0
    9.8677    5.0466    0.0000 C   0  0  0  0  0  0  0  0  0  0  0  0
   11.0803    2.7508    0.0000 C   0  0  0  0  0  0  0  0  0  0  0  0
  1  2  2  0
  2  3  1  0
  3  6  2  0
  5  4  2  0
  4  1  1  0
  5  6  1  0
  6  7  1  0
  7  8  1  0
  8  9  1  0
  9  5  1  0
  8 10  2  0
  9 11  2  0
 11 12  1  0
 12 13  1  0
 13 14  1  0
 14 15  1  0
 15 11  1  0
 13 16  2  0
 14 17  2  0
 17 18  1  0
 18 19  2  0
 19 25  1  0
 24 20  1  0
 20 21  2  0
 21 18  1  0
 12 22  1  0
 22 23  1  0
 24 25  2  0
 26 27  1  0
 20 26  1  0
 28 29  1  0
 24 28  1  0
 30 31  1  0
 25 30  1  0
 23 32  1  0
 32 33  1  0
 33 34  1  0
 33 35  1  0
 35 36  1  0
 34 37  1  0
M  END
>  <Curated_InChIs>  (124) 
InChI=1S/C28H33N3O5S/c1-6-30(7-2)13-10-14-31-27(33)23(17-18-15-21(34-3)25(36-5)22(16-18)35-4)37-28(31)24-19-11-8-9-12-20(19)29-26(24)32/h8-9,11-12,15-17H,6-7,10,13-14H2,1-5H3,(H,29,32)

>  <threshold>  (124) 
5

>  <pchembl>  (124) 
6.14

>  <Classification>  (124) 
1

>  <source>  (124) 
chembl_28

>  <SMILES>  (124) 
CCN(CC)CCCn1c(=O)/c(=C/c2cc(OC)c(OC)c(OC)c2)s/c1=C1/C(=O)Nc2ccccc21

>  <InChIKey>  (124) 
DQCAPRRNXQWYLG-KBHFEKENSA-N

$$$$

     RDKit          2D

 29 33  0  0  0  0  0  0  0  0999 V2000
   31.6173  -12.0845    0.0000 C   0  0  0  0  0  0  0  0  0  0  0  0
   31.6161  -12.9040    0.0000 C   0  0  0  0  0  0  0  0  0  0  0  0
   32.3242  -13.3130    0.0000 C   0  0  0  0  0  0  0  0  0  0  0  0
   32.3224  -11.6756    0.0000 C   0  0  0  0  0  0  0  0  0  0  0  0
   33.0310  -12.0809    0.0000 C   0  0  0  0  0  0  0  0  0  0  0  0
   33.0313  -12.9041    0.0000 C   0  0  0  0  0  0  0  0  0  0  0  0
   33.8142  -13.1582    0.0000 N   0  0  0  0  0  0  0  0  0  0  0  0
   33.8138  -11.8263    0.0000 C   0  0  0  0  0  0  0  0  0  0  0  0
   34.2980  -12.4935    0.0000 C   0  0  0  0  0  0  0  0  0  0  0  0
   35.1133  -12.4082    0.0000 C   0  0  0  0  0  0  0  0  0  0  0  0
   35.4508  -11.6568    0.0000 N   0  0  0  0  0  0  0  0  0  0  0  0
   34.9666  -10.9897    0.0000 C   0  0  0  0  0  0  0  0  0  0  0  0
   34.1449  -11.0739    0.0000 C   0  0  0  0  0  0  0  0  0  0  0  0
   36.2637  -11.5729    0.0000 C   0  0  0  0  0  0  0  0  0  0  0  0
   36.7427  -12.2349    0.0000 O   0  0  0  0  0  0  0  0  0  0  0  0
   36.5974  -10.8270    0.0000 C   0  0  0  0  0  0  0  0  0  0  0  0
   37.4106  -10.7471    0.0000 C   0  0  0  0  0  0  0  0  0  0  0  0
   37.7443  -10.0020    0.0000 C   0  0  0  0  0  0  0  0  0  0  0  0
   37.2651   -9.3390    0.0000 C   0  0  0  0  0  0  0  0  0  0  0  0
   36.4483   -9.4260    0.0000 C   0  0  0  0  0  0  0  0  0  0  0  0
   36.1182  -10.1713    0.0000 C   0  0  0  0  0  0  0  0  0  0  0  0
   35.5932  -13.0668    0.0000 C   0  0  0  0  0  0  0  0  0  0  0  0
   35.2578  -13.8132    0.0000 C   0  0  0  0  0  0  0  0  0  0  0  0
   35.7362  -14.4748    0.0000 C   0  0  0  0  0  0  0  0  0  0  0  0
   36.5500  -14.3913    0.0000 C   0  0  0  0  0  0  0  0  0  0  0  0
   36.8831  -13.6404    0.0000 C   0  0  0  0  0  0  0  0  0  0  0  0
   36.4027  -12.9819    0.0000 C   0  0  0  0  0  0  0  0  0  0  0  0
   35.4020  -15.2206    0.0000 F   0  0  0  0  0  0  0  0  0  0  0  0
   37.0299  -15.0526    0.0000 F   0  0  0  0  0  0  0  0  0  0  0  0
  1  2  2  0
  2  3  1  0
  3  6  2  0
  5  4  2  0
  4  1  1  0
  5  6  1  0
  6  7  1  0
  7  9  1  0
  8  5  1  0
  8  9  2  0
  8 13  1  0
  9 10  1  0
 10 11  1  0
 11 12  1  0
 12 13  1  0
 11 14  1  0
 14 15  2  0
 14 16  1  0
 16 17  2  0
 17 18  1  0
 18 19  2  0
 19 20  1  0
 20 21  2  0
 21 16  1  0
 22 23  2  0
 23 24  1  0
 24 25  2  0
 25 26  1  0
 26 27  2  0
 27 22  1  0
 10 22  1  0
 24 28  1  0
 25 29  1  0
M  END
>  <Curated_InChIs>  (125) 
InChI=1S/C24H18F2N2O/c25-19-11-10-16(14-20(19)26)23-22-18(17-8-4-5-9-21(17)27-22)12-13-28(23)24(29)15-6-2-1-3-7-15/h1-11,14,23,27H,12-13H2

>  <threshold>  (125) 
5

>  <pchembl>  (125) 
5.06

>  <Classification>  (125) 
1

>  <source>  (125) 
chembl_28

>  <SMILES>  (125) 
O=C(c1ccccc1)N1CCc2c([nH]c3ccccc23)C1c1ccc(F)c(F)c1

>  <InChIKey>  (125) 
DRYKARSVUQXTQL-UHFFFAOYSA-N

$$$$

     RDKit          2D

 37 43  0  0  0  0  0  0  0  0999 V2000
    4.0182  -20.3648    0.0000 C   0  0  0  0  0  0  0  0  0  0  0  0
    4.7313  -19.1247    0.0000 C   0  0  0  0  0  0  0  0  0  0  0  0
    5.4466  -19.5338    0.0000 C   0  0  0  0  0  0  0  0  0  0  0  0
    5.4501  -20.3669    0.0000 C   0  0  0  0  0  0  0  0  0  0  0  0
    6.1692  -20.7782    0.0000 Se  0  0  0  0  0  2  0  0  0  0  0  0
    6.1624  -19.1120    0.0000 C   0  0  0  0  0  0  0  0  0  0  0  0
    6.8862  -19.5279    0.0000 C   0  0  0  0  0  0  0  0  0  0  0  0
    6.8891  -20.3649    0.0000 C   0  0  0  0  0  0  0  0  0  0  0  0
    7.6142  -20.7790    0.0000 C   0  0  0  0  0  0  0  0  0  0  0  0
    8.3369  -20.3574    0.0000 C   0  0  0  0  0  0  0  0  0  0  0  0
    8.3300  -19.5173    0.0000 C   0  0  0  0  0  0  0  0  0  0  0  0
    7.6043  -19.1069    0.0000 C   0  0  0  0  0  0  0  0  0  0  0  0
    6.1579  -18.2871    0.0000 C   0  0  0  0  0  0  0  0  0  0  0  0
    9.0540  -20.7653    0.0000 N   0  0  0  0  0  0  0  0  0  0  0  0
    9.0593  -21.5903    0.0000 C   0  0  0  0  0  0  0  0  0  0  0  0
    9.7658  -20.3482    0.0000 C   0  0  0  0  0  0  0  0  0  0  0  0
    3.3034  -20.7768    0.0000 N   0  0  0  0  0  0  0  0  0  0  0  0
    2.5893  -20.3637    0.0000 C   0  0  0  0  0  0  0  0  0  0  0  0
    3.3028  -21.6018    0.0000 C   0  0  0  0  0  0  0  0  0  0  0  0
    6.8233  -17.7986    0.0000 S   0  0  0  0  0  0  0  0  0  0  0  0
    6.5640  -17.0154    0.0000 C   0  0  0  0  0  0  0  0  0  0  0  0
    5.7390  -17.0199    0.0000 C   0  0  0  0  0  0  0  0  0  0  0  0
    5.4885  -17.8059    0.0000 C   0  0  0  0  0  0  0  0  0  0  0  0
    7.0453  -16.3453    0.0000 C   0  0  0  0  0  0  0  0  0  0  0  0
    7.8605  -16.4252    0.0000 N   0  0  0  0  0  0  0  0  0  0  0  0
    6.6998  -15.5917    0.0000 S   0  0  0  0  0  0  0  0  0  0  0  0
    8.1952  -17.1736    0.0000 C   0  0  0  0  0  0  0  0  0  0  0  0
    9.0066  -17.2551    0.0000 C   0  0  0  0  0  0  0  0  0  0  0  0
    9.4871  -16.5913    0.0000 C   0  0  0  0  0  0  0  0  0  0  0  0
    9.1501  -15.8437    0.0000 C   0  0  0  0  0  0  0  0  0  0  0  0
    8.3327  -15.7599    0.0000 C   0  0  0  0  0  0  0  0  0  0  0  0
    2.5900  -19.5387    0.0000 C   0  0  0  0  0  0  0  0  0  0  0  0
    3.3048  -19.1268    0.0000 C   0  0  0  0  0  0  0  0  0  0  0  0
    4.0189  -19.5398    0.0000 C   0  0  0  0  0  0  0  0  0  0  0  0
    4.0169  -22.0148    0.0000 C   0  0  0  0  0  0  0  0  0  0  0  0
    4.7317  -21.6029    0.0000 C   0  0  0  0  0  0  0  0  0  0  0  0
    4.7324  -20.7779    0.0000 C   0  0  0  0  0  0  0  0  0  0  0  0
  7  6  2  0
  1 17  1  0
  3  2  2  0
 17 18  1  0
  2 34  1  0
 17 19  1  0
 13 20  1  0
  7  8  1  0
  3  4  1  0
  8  9  2  0
 34  1  2  0
 20 21  1  0
 21 22  2  0
 22 23  1  0
 23 13  2  0
  9 10  1  0
 21 24  1  0
  1 37  1  0
 10 11  1  0
 24 25  1  0
 24 26  2  0
 25 27  1  0
 37  4  2  0
 11 12  2  0
 12  7  1  0
  6 13  1  0
 25 31  1  0
 27 28  1  0
 28 29  1  0
 29 30  1  0
 30 31  1  0
  3  6  1  0
 18 32  1  0
 10 14  2  3
 32 33  1  0
  4  5  1  0
 33 34  1  0
 14 15  1  0
 19 35  1  0
  5  8  1  0
 35 36  1  0
 14 16  1  0
 36 37  1  0
M  CHG  1  14   1
M  END
>  <Curated_InChIs>  (126) 
InChI=1S/C31H34N3S2Se/c1-32(2)21-10-11-22-27(19-21)37-30-23-9-7-17-33-16-6-8-20(29(23)33)18-24(30)28(22)25-12-13-26(36-25)31(35)34-14-4-3-5-15-34/h10-13,18-19H,3-9,14-17H2,1-2H3

>  <threshold>  (126) 
5

>  <pchembl>  (126) 
5.28

>  <Classification>  (126) 
1

>  <source>  (126) 
chembl_28

>  <SMILES>  (126) 
C[N+](C)=c1ccc2c(-c3ccc(C(=S)N4CCCCC4)s3)c3cc4c5c(c3[se]c-2c1)CCCN5CCC4

>  <InChIKey>  (126) 
DRYSDBOKYLLFRL-UHFFFAOYSA-N

$$$$

     RDKit          2D

 26 29  0  0  0  0  0  0  0  0999 V2000
   25.8928   -4.8825    0.0000 C   0  0  0  0  0  0  0  0  0  0  0  0
   25.8917   -5.7020    0.0000 C   0  0  0  0  0  0  0  0  0  0  0  0
   26.5997   -6.1110    0.0000 C   0  0  0  0  0  0  0  0  0  0  0  0
   26.5979   -4.4736    0.0000 C   0  0  0  0  0  0  0  0  0  0  0  0
   27.3065   -4.8789    0.0000 C   0  0  0  0  0  0  0  0  0  0  0  0
   27.3073   -5.6979    0.0000 C   0  0  0  0  0  0  0  0  0  0  0  0
   28.0158   -6.1050    0.0000 N   0  0  0  0  0  0  0  0  0  0  0  0
   28.7241   -5.6941    0.0000 C   0  0  0  0  0  0  0  0  0  0  0  0
   28.7194   -4.8720    0.0000 N   0  0  0  0  0  0  0  0  0  0  0  0
   28.0103   -4.4686    0.0000 C   0  0  0  0  0  0  0  0  0  0  0  0
   29.4375   -6.0971    0.0000 C   0  0  0  0  0  0  0  0  0  0  0  0
   29.5261   -6.9095    0.0000 C   0  0  0  0  0  0  0  0  0  0  0  0
   30.3261   -7.0763    0.0000 C   0  0  0  0  0  0  0  0  0  0  0  0
   30.7320   -6.3669    0.0000 C   0  0  0  0  0  0  0  0  0  0  0  0
   30.1828   -5.7619    0.0000 S   0  0  0  0  0  0  0  0  0  0  0  0
   28.0059   -3.6515    0.0000 N   0  0  0  0  0  0  0  0  0  0  0  0
   28.7115   -3.2391    0.0000 C   0  0  0  0  0  0  0  0  0  0  0  0
   29.4167   -3.6473    0.0000 C   0  0  0  0  0  0  0  0  0  0  0  0
   30.1218   -3.2357    0.0000 C   0  0  0  0  0  0  0  0  0  0  0  0
   30.1179   -2.4176    0.0000 C   0  0  0  0  0  0  0  0  0  0  0  0
   29.4031   -2.0130    0.0000 C   0  0  0  0  0  0  0  0  0  0  0  0
   28.7009   -2.4270    0.0000 C   0  0  0  0  0  0  0  0  0  0  0  0
   30.8315   -3.6409    0.0000 O   0  0  0  0  0  0  0  0  0  0  0  0
   30.8229   -2.0043    0.0000 O   0  0  0  0  0  0  0  0  0  0  0  0
   31.5333   -2.4082    0.0000 C   0  0  0  0  0  0  0  0  0  0  0  0
   30.8354   -4.4580    0.0000 C   0  0  0  0  0  0  0  0  0  0  0  0
  1  2  2  0
  2  3  1  0
  3  6  2  0
  5  4  2  0
  4  1  1  0
  5  6  1  0
  6  7  1  0
  7  8  2  0
  8  9  1  0
  9 10  2  0
 10  5  1  0
 11 12  2  0
 12 13  1  0
 13 14  2  0
 14 15  1  0
 15 11  1  0
  8 11  1  0
 10 16  1  0
 16 17  1  0
 17 18  2  0
 18 19  1  0
 19 20  2  0
 20 21  1  0
 21 22  2  0
 22 17  1  0
 19 23  1  0
 20 24  1  0
 24 25  1  0
 23 26  1  0
M  END
>  <Curated_InChIs>  (127) 
InChI=1S/C20H17N3O2S/c1-24-16-10-9-13(12-17(16)25-2)21-19-14-6-3-4-7-15(14)22-20(23-19)18-8-5-11-26-18/h3-12H,1-2H3,(H,21,22,23)

>  <threshold>  (127) 
5

>  <pchembl>  (127) 
5.73

>  <Classification>  (127) 
1

>  <source>  (127) 
chembl_28

>  <SMILES>  (127) 
COc1ccc(Nc2nc(-c3cccs3)nc3ccccc23)cc1OC

>  <InChIKey>  (127) 
DXSMVRTYTCGGBA-UHFFFAOYSA-N

$$$$

     RDKit          2D

 28 31  0  0  0  0  0  0  0  0999 V2000
    6.8610   -8.8887    0.0000 O   0  0  0  0  0  0  0  0  0  0  0  0
    7.5678   -9.2990    0.0000 C   0  0  0  0  0  0  0  0  0  0  0  0
    7.5644  -10.1162    0.0000 C   0  0  0  0  0  0  0  0  0  0  0  0
    8.9793   -9.2981    0.0000 C   0  0  0  0  0  0  0  0  0  0  0  0
    8.2728   -8.8915    0.0000 C   0  0  0  0  0  0  0  0  0  0  0  0
    8.9799  -10.1195    0.0000 C   0  0  0  0  0  0  0  0  0  0  0  0
    8.2709  -10.5215    0.0000 C   0  0  0  0  0  0  0  0  0  0  0  0
    8.2645  -11.3321    0.0000 O   0  0  0  0  0  0  0  0  0  0  0  0
    8.9655  -11.7468    0.0000 C   0  0  0  0  0  0  0  0  0  0  0  0
    9.6746  -11.3448    0.0000 C   0  0  0  0  0  0  0  0  0  0  0  0
    9.6827  -10.5281    0.0000 C   0  0  0  0  0  0  0  0  0  0  0  0
    8.9580  -12.5640    0.0000 O   0  0  0  0  0  0  0  0  0  0  0  0
   10.3787  -11.7596    0.0000 C   0  0  0  0  0  0  0  0  0  0  0  0
   10.3930  -10.1240    0.0000 C   0  0  0  0  0  0  0  0  0  0  0  0
    0.4897   -9.2904    0.0000 C   0  0  0  0  0  0  0  0  0  0  0  0
    0.4886  -10.1099    0.0000 C   0  0  0  0  0  0  0  0  0  0  0  0
    1.1966  -10.5189    0.0000 C   0  0  0  0  0  0  0  0  0  0  0  0
    1.1948   -8.8815    0.0000 C   0  0  0  0  0  0  0  0  0  0  0  0
    1.9035   -9.2868    0.0000 C   0  0  0  0  0  0  0  0  0  0  0  0
    1.9023  -10.1074    0.0000 C   0  0  0  0  0  0  0  0  0  0  0  0
    2.6085  -10.5164    0.0000 C   0  0  0  0  0  0  0  0  0  0  0  0
    3.3204  -10.1094    0.0000 C   0  0  0  0  0  0  0  0  0  0  0  0
    3.3215   -9.2888    0.0000 N   0  0  0  0  0  0  0  0  0  0  0  0
    2.6108   -8.8752    0.0000 C   0  0  0  0  0  0  0  0  0  0  0  0
    4.0302   -8.8819    0.0000 C   0  0  0  0  0  0  0  0  0  0  0  0
    4.7369   -9.2922    0.0000 C   0  0  0  0  0  0  0  0  0  0  0  0
    5.4456   -8.8853    0.0000 C   0  0  0  0  0  0  0  0  0  0  0  0
    6.1524   -9.2956    0.0000 C   0  0  0  0  0  0  0  0  0  0  0  0
  1  2  1  0
  2  3  2  0
  3  7  1  0
  6  4  1  0
  4  5  2  0
  5  2  1  0
  6  7  2  0
  6 11  1  0
  7  8  1  0
  8  9  1  0
  9 10  1  0
 10 11  2  0
  9 12  2  0
 10 13  1  0
 11 14  1  0
 15 16  2  0
 16 17  1  0
 17 20  2  0
 19 18  2  0
 18 15  1  0
 19 20  1  0
 19 24  1  0
 20 21  1  0
 21 22  1  0
 22 23  1  0
 23 24  1  0
 23 25  1  0
 25 26  1  0
 26 27  1  0
 27 28  1  0
 28  1  1  0
M  END
>  <Curated_InChIs>  (128) 
InChI=1S/C24H27NO3/c1-17-18(2)24(26)28-23-15-21(9-10-22(17)23)27-14-6-5-12-25-13-11-19-7-3-4-8-20(19)16-25/h3-4,7-10,15H,5-6,11-14,16H2,1-2H3

>  <threshold>  (128) 
5

>  <pchembl>  (128) 
6.04

>  <Classification>  (128) 
1

>  <source>  (128) 
chembl_28

>  <SMILES>  (128) 
Cc1c(C)c2ccc(OCCCCN3CCc4ccccc4C3)cc2oc1=O

>  <InChIKey>  (128) 
FIZCTLFFIOOEEU-UHFFFAOYSA-N

$$$$

     RDKit          2D

 54 60  0  0  0  0  0  0  0  0999 V2000
   14.0201   -8.5426    0.0000 C   0  0  0  0  0  0  0  0  0  0  0  0
   14.0212   -9.3621    0.0000 C   0  0  0  0  0  0  0  0  0  0  0  0
   13.3132   -9.7711    0.0000 C   0  0  0  0  0  0  0  0  0  0  0  0
   13.3150   -8.1337    0.0000 C   0  0  0  0  0  0  0  0  0  0  0  0
   12.6063   -8.5390    0.0000 C   0  0  0  0  0  0  0  0  0  0  0  0
   12.6030   -9.3596    0.0000 C   0  0  0  0  0  0  0  0  0  0  0  0
   11.8945   -9.7648    0.0000 C   0  0  0  0  0  0  0  0  0  0  0  0
   11.1849   -9.3538    0.0000 C   0  0  0  0  0  0  0  0  0  0  0  0
   11.1883   -8.5332    0.0000 C   0  0  0  0  0  0  0  0  0  0  0  0
   11.9013   -8.1235    0.0000 O   0  0  0  0  0  0  0  0  0  0  0  0
   11.8923  -10.5820    0.0000 O   0  0  0  0  0  0  0  0  0  0  0  0
   10.4831   -8.1231    0.0000 C   0  0  0  0  0  0  0  0  0  0  0  0
    9.7738   -8.5312    0.0000 C   0  0  0  0  0  0  0  0  0  0  0  0
    9.0679   -8.1211    0.0000 C   0  0  0  0  0  0  0  0  0  0  0  0
    9.0700   -7.3030    0.0000 C   0  0  0  0  0  0  0  0  0  0  0  0
    9.7839   -6.8968    0.0000 C   0  0  0  0  0  0  0  0  0  0  0  0
   10.4869   -7.3092    0.0000 C   0  0  0  0  0  0  0  0  0  0  0  0
    8.3586   -6.9009    0.0000 O   0  0  0  0  0  0  0  0  0  0  0  0
    6.2360   -7.3263    0.0000 O   0  0  0  0  0  0  0  0  0  0  0  0
   -5.7973   -8.6011    0.0000 C   0  0  0  0  0  0  0  0  0  0  0  0
   -5.7962   -9.4206    0.0000 C   0  0  0  0  0  0  0  0  0  0  0  0
   -5.0927   -9.8296    0.0000 C   0  0  0  0  0  0  0  0  0  0  0  0
   -5.0909   -8.1922    0.0000 C   0  0  0  0  0  0  0  0  0  0  0  0
   -4.3798   -8.5975    0.0000 C   0  0  0  0  0  0  0  0  0  0  0  0
   -4.3749   -9.4182    0.0000 C   0  0  0  0  0  0  0  0  0  0  0  0
   -3.6718   -9.8233    0.0000 C   0  0  0  0  0  0  0  0  0  0  0  0
   -2.9617   -9.4123    0.0000 C   0  0  0  0  0  0  0  0  0  0  0  0
   -2.9666   -8.5917    0.0000 C   0  0  0  0  0  0  0  0  0  0  0  0
   -3.6734   -8.1820    0.0000 O   0  0  0  0  0  0  0  0  0  0  0  0
   -3.6658  -10.6405    0.0000 O   0  0  0  0  0  0  0  0  0  0  0  0
   -2.2602   -8.1816    0.0000 C   0  0  0  0  0  0  0  0  0  0  0  0
   -1.5497   -8.5897    0.0000 C   0  0  0  0  0  0  0  0  0  0  0  0
   -0.8442   -8.1796    0.0000 C   0  0  0  0  0  0  0  0  0  0  0  0
   -0.8421   -7.3615    0.0000 C   0  0  0  0  0  0  0  0  0  0  0  0
   -1.5562   -6.9553    0.0000 C   0  0  0  0  0  0  0  0  0  0  0  0
   -2.2646   -7.3677    0.0000 C   0  0  0  0  0  0  0  0  0  0  0  0
   -0.1365   -6.9498    0.0000 O   0  0  0  0  0  0  0  0  0  0  0  0
    0.5736   -7.3553    0.0000 C   0  0  0  0  0  0  0  0  0  0  0  0
    1.2795   -6.9436    0.0000 C   0  0  0  0  0  0  0  0  0  0  0  0
    1.9890   -7.3490    0.0000 O   0  0  0  0  0  0  0  0  0  0  0  0
    2.6949   -6.9373    0.0000 C   0  0  0  0  0  0  0  0  0  0  0  0
    3.4044   -7.3428    0.0000 C   0  0  0  0  0  0  0  0  0  0  0  0
    4.1103   -6.9310    0.0000 N   0  0  0  0  0  0  0  0  0  0  0  0
    4.8198   -7.3365    0.0000 C   0  0  0  0  0  0  0  0  0  0  0  0
    5.5257   -6.9248    0.0000 C   0  0  0  0  0  0  0  0  0  0  0  0
    6.9399   -6.9112    0.0000 C   0  0  0  0  0  0  0  0  0  0  0  0
    7.6513   -7.3134    0.0000 C   0  0  0  0  0  0  0  0  0  0  0  0
    4.1067   -6.1139    0.0000 C   0  0  0  0  0  0  0  0  0  0  0  0
    4.8126   -5.7021    0.0000 C   0  0  0  0  0  0  0  0  0  0  0  0
    5.5194   -6.1095    0.0000 C   0  0  0  0  0  0  0  0  0  0  0  0
    6.2248   -5.6985    0.0000 C   0  0  0  0  0  0  0  0  0  0  0  0
    6.2217   -4.8804    0.0000 C   0  0  0  0  0  0  0  0  0  0  0  0
    5.5072   -4.4751    0.0000 C   0  0  0  0  0  0  0  0  0  0  0  0
    4.8047   -4.8885    0.0000 C   0  0  0  0  0  0  0  0  0  0  0  0
  1  2  2  0
  2  3  1  0
  3  6  2  0
  5  4  2  0
  4  1  1  0
  5  6  1  0
  5 10  1  0
  6  7  1  0
  7  8  1  0
  8  9  2  0
  9 10  1  0
  7 11  2  0
 12 13  2  0
 13 14  1  0
 14 15  2  0
 15 16  1  0
 16 17  2  0
 17 12  1  0
  9 12  1  0
 18 15  1  0
 20 21  2  0
 21 22  1  0
 22 25  2  0
 24 23  2  0
 23 20  1  0
 24 25  1  0
 24 29  1  0
 25 26  1  0
 26 27  1  0
 27 28  2  0
 28 29  1  0
 26 30  2  0
 31 32  2  0
 32 33  1  0
 33 34  2  0
 34 35  1  0
 35 36  2  0
 36 31  1  0
 28 31  1  0
 34 37  1  0
 37 38  1  0
 38 39  1  0
 39 40  1  0
 40 41  1  0
 41 42  1  0
 42 43  1  0
 43 44  1  0
 44 45  1  0
 45 19  1  0
 19 46  1  0
 46 47  1  0
 47 18  1  0
 43 48  1  0
 48 49  1  0
 49 50  2  0
 50 51  1  0
 51 52  2  0
 52 53  1  0
 53 54  2  0
 54 49  1  0
M  END
>  <Curated_InChIs>  (129) 
InChI=1S/C45H41NO8/c47-40-30-44(53-42-12-6-4-10-38(40)42)34-14-18-36(19-15-34)51-28-26-49-24-22-46(32-33-8-2-1-3-9-33)23-25-50-27-29-52-37-20-16-35(17-21-37)45-31-41(48)39-11-5-7-13-43(39)54-45/h1-21,30-31H,22-29,32H2

>  <threshold>  (129) 
5

>  <pchembl>  (129) 
6.47, 6.55

>  <Classification>  (129) 
1

>  <source>  (129) 
chembl_28

>  <SMILES>  (129) 
O=c1cc(-c2ccc(OCCOCCN(CCOCCOc3ccc(-c4cc(=O)c5ccccc5o4)cc3)Cc3ccccc3)cc2)oc2ccccc12

>  <InChIKey>  (129) 
FRRRKBQKGOFFAY-UHFFFAOYSA-N

$$$$

     RDKit          2D

 41 44  0  0  0  0  0  0  0  0999 V2000
   -2.6111    0.7486    0.0000 C   0  0  0  0  0  0  0  0  0  0  0  0
   -2.6111   -0.7486    0.0000 C   0  0  0  0  0  0  0  0  0  0  0  0
   -1.2964   -1.4973    0.0000 C   0  0  0  0  0  0  0  0  0  0  0  0
   -1.2964    1.4973    0.0000 C   0  0  0  0  0  0  0  0  0  0  0  0
    0.0000    0.7486    0.0000 C   0  0  0  0  0  0  0  0  0  0  0  0
    0.0000   -0.7486    0.0000 C   0  0  0  0  0  0  0  0  0  0  0  0
    1.2964   -1.4973    0.0000 C   0  0  0  0  0  0  0  0  0  0  0  0
    2.5929   -0.7486    0.0000 C   0  0  0  0  0  0  0  0  0  0  0  0
    2.5929    0.7486    0.0000 C   0  0  0  0  0  0  0  0  0  0  0  0
    1.2964    1.4973    0.0000 O   0  0  0  0  0  0  0  0  0  0  0  0
   -1.2907   -2.9981    0.0000 O   0  0  0  0  0  0  0  0  0  0  0  0
   -3.9091    1.5019    0.0000 O   0  0  0  0  0  0  0  0  0  0  0  0
    3.8926    1.4990    0.0000 C   0  0  0  0  0  0  0  0  0  0  0  0
    3.8951    2.9990    0.0000 C   0  0  0  0  0  0  0  0  0  0  0  0
    5.1953    3.7469    0.0000 C   0  0  0  0  0  0  0  0  0  0  0  0
    6.4931    2.9949    0.0000 C   0  0  0  0  0  0  0  0  0  0  0  0
    6.4907    1.4949    0.0000 C   0  0  0  0  0  0  0  0  0  0  0  0
    5.1905    0.7469    0.0000 C   0  0  0  0  0  0  0  0  0  0  0  0
    7.7878    0.7397    0.0000 O   0  0  0  0  0  0  0  0  0  0  0  0
    7.7956    3.7405    0.0000 O   0  0  0  0  0  0  0  0  0  0  0  0
    5.1946    5.2478    0.0000 O   0  0  0  0  0  0  0  0  0  0  0  0
    3.8911   -1.5017    0.0000 O   0  0  0  0  0  0  0  0  0  0  0  0
   -3.9072    2.7019    0.0000 C   0  0  0  0  0  0  0  0  0  0  0  0
   -2.3272   -3.6028    0.0000 C   0  0  0  0  0  0  0  0  0  0  0  0
    4.1555    5.8480    0.0000 C   0  0  0  0  0  0  0  0  0  0  0  0
    8.8331    3.1374    0.0000 C   0  0  0  0  0  0  0  0  0  0  0  0
    7.7841   -0.4603    0.0000 C   0  0  0  0  0  0  0  0  0  0  0  0
    3.8890   -3.0026    0.0000 C   0  0  0  0  0  0  0  0  0  0  0  0
    2.8487   -3.6008    0.0000 O   0  0  0  0  0  0  0  0  0  0  0  0
    5.1872   -3.7556    0.0000 C   0  0  0  0  0  0  0  0  0  0  0  0
    5.1850   -5.2565    0.0000 C   0  0  0  0  0  0  0  0  0  0  0  0
    6.4832   -6.0096    0.0000 C   0  0  0  0  0  0  0  0  0  0  0  0
    6.4833   -7.5096    0.0000 C   0  0  0  0  0  0  0  0  0  0  0  0
    7.7823   -8.2596    0.0000 C   0  0  0  0  0  0  0  0  0  0  0  0
    9.0814   -7.5096    0.0000 C   0  0  0  0  0  0  0  0  0  0  0  0
    9.0814   -6.0096    0.0000 C   0  0  0  0  0  0  0  0  0  0  0  0
    7.7824   -5.2596    0.0000 C   0  0  0  0  0  0  0  0  0  0  0  0
   10.3796   -8.2628    0.0000 O   0  0  0  0  0  0  0  0  0  0  0  0
   10.3778   -9.4628    0.0000 C   0  0  0  0  0  0  0  0  0  0  0  0
   10.3796   -5.2566    0.0000 O   0  0  0  0  0  0  0  0  0  0  0  0
   10.3780   -4.0566    0.0000 C   0  0  0  0  0  0  0  0  0  0  0  0
  1  2  2  0
  2  3  1  0
  3  6  2  0
  5  4  2  0
  4  1  1  0
  5  6  1  0
  5 10  1  0
  6  7  1  0
  7  8  1  0
  8  9  1  0
  9 10  1  0
  3 11  1  0
  1 12  1  0
 13 14  2  0
 14 15  1  0
 15 16  2  0
 16 17  1  0
 17 18  2  0
 18 13  1  0
  9 13  1  6
 17 19  1  0
 16 20  1  0
 15 21  1  0
  8 22  1  1
 12 23  1  0
 11 24  1  0
 21 25  1  0
 20 26  1  0
 19 27  1  0
 22 28  1  0
 28 29  2  0
 28 30  1  0
 30 31  2  0
 31 32  1  0
 32 33  2  0
 33 34  1  0
 34 35  2  0
 35 36  1  0
 36 37  2  0
 37 32  1  0
 38 39  1  0
 35 38  1  0
 40 41  1  0
 36 40  1  0
M  END
>  <Curated_InChIs>  (130) 
InChI=1S/C31H34O10/c1-33-20-15-23(35-3)21-17-28(40-29(32)11-9-18-8-10-22(34-2)25(12-18)36-4)30(41-24(21)16-20)19-13-26(37-5)31(39-7)27(14-19)38-6/h8-16,28,30H,17H2,1-7H3

>  <threshold>  (130) 
5

>  <pchembl>  (130) 
7.93

>  <Classification>  (130) 
1

>  <source>  (130) 
chembl_28

>  <SMILES>  (130) 
COc1cc(OC)c2c(c1)O[C@H](c1cc(OC)c(OC)c(OC)c1)[C@@H](OC(=O)/C=C/c1ccc(OC)c(OC)c1)C2

>  <InChIKey>  (130) 
GJQYFVVJUBJBIA-IPGJECJKSA-N

$$$$

     RDKit          2D

 36 40  0  0  0  0  0  0  0  0999 V2000
   24.4936  -10.7187    0.0000 O   0  0  0  0  0  0  0  0  0  0  0  0
   25.2155  -11.1018    0.0000 C   0  0  0  0  0  0  0  0  0  0  0  0
   25.2433  -11.9185    0.0000 C   0  0  0  0  0  0  0  0  0  0  0  0
   26.6259  -11.0469    0.0000 C   0  0  0  0  0  0  0  0  0  0  0  0
   25.9045  -10.6677    0.0000 C   0  0  0  0  0  0  0  0  0  0  0  0
   26.6579  -11.8678    0.0000 C   0  0  0  0  0  0  0  0  0  0  0  0
   25.9647  -12.2965    0.0000 C   0  0  0  0  0  0  0  0  0  0  0  0
   25.9893  -13.1068    0.0000 O   0  0  0  0  0  0  0  0  0  0  0  0
   26.7056  -13.4944    0.0000 C   0  0  0  0  0  0  0  0  0  0  0  0
   27.3989  -13.0657    0.0000 C   0  0  0  0  0  0  0  0  0  0  0  0
   27.3757  -12.2492    0.0000 C   0  0  0  0  0  0  0  0  0  0  0  0
   26.7293  -14.3113    0.0000 O   0  0  0  0  0  0  0  0  0  0  0  0
   28.1182  -13.4533    0.0000 C   0  0  0  0  0  0  0  0  0  0  0  0
   18.1197  -11.1170    0.0000 C   0  0  0  0  0  0  0  0  0  0  0  0
   18.1186  -11.9365    0.0000 C   0  0  0  0  0  0  0  0  0  0  0  0
   18.8266  -12.3455    0.0000 C   0  0  0  0  0  0  0  0  0  0  0  0
   18.8248  -10.7081    0.0000 C   0  0  0  0  0  0  0  0  0  0  0  0
   19.5335  -11.1134    0.0000 C   0  0  0  0  0  0  0  0  0  0  0  0
   19.5323  -11.9340    0.0000 C   0  0  0  0  0  0  0  0  0  0  0  0
   20.2385  -12.3431    0.0000 C   0  0  0  0  0  0  0  0  0  0  0  0
   20.9504  -11.9360    0.0000 C   0  0  0  0  0  0  0  0  0  0  0  0
   20.9515  -11.1154    0.0000 N   0  0  0  0  0  0  0  0  0  0  0  0
   20.2408  -10.7018    0.0000 C   0  0  0  0  0  0  0  0  0  0  0  0
   21.6602  -10.7085    0.0000 C   0  0  0  0  0  0  0  0  0  0  0  0
   22.3669  -11.1188    0.0000 C   0  0  0  0  0  0  0  0  0  0  0  0
   23.0756  -10.7119    0.0000 C   0  0  0  0  0  0  0  0  0  0  0  0
   17.4119  -10.7085    0.0000 O   0  0  0  0  0  0  0  0  0  0  0  0
   16.7043  -11.1173    0.0000 C   0  0  0  0  0  0  0  0  0  0  0  0
   17.4106  -12.3445    0.0000 O   0  0  0  0  0  0  0  0  0  0  0  0
   16.7032  -11.9354    0.0000 C   0  0  0  0  0  0  0  0  0  0  0  0
   23.7824  -11.1222    0.0000 C   0  0  0  0  0  0  0  0  0  0  0  0
   28.1400  -14.2686    0.0000 C   0  0  0  0  0  0  0  0  0  0  0  0
   28.8585  -14.6562    0.0000 C   0  0  0  0  0  0  0  0  0  0  0  0
   29.5549  -14.2270    0.0000 C   0  0  0  0  0  0  0  0  0  0  0  0
   29.5282  -13.4060    0.0000 C   0  0  0  0  0  0  0  0  0  0  0  0
   28.8092  -13.0221    0.0000 C   0  0  0  0  0  0  0  0  0  0  0  0
  1  2  1  0
  2  3  2  0
  3  7  1  0
  6  4  1  0
  4  5  2  0
  5  2  1  0
  6  7  2  0
  6 11  1  0
  7  8  1  0
  8  9  1  0
  9 10  1  0
 10 11  2  0
  9 12  2  0
 10 13  1  0
 14 15  2  0
 15 16  1  0
 16 19  2  0
 18 17  2  0
 17 14  1  0
 18 19  1  0
 18 23  1  0
 19 20  1  0
 20 21  1  0
 21 22  1  0
 22 23  1  0
 22 24  1  0
 24 25  1  0
 25 26  1  0
 14 27  1  0
 27 28  1  0
 15 29  1  0
 29 30  1  0
 26 31  1  0
 31  1  1  0
 13 32  2  0
 32 33  1  0
 33 34  2  0
 34 35  1  0
 35 36  2  0
 36 13  1  0
M  END
>  <Curated_InChIs>  (131) 
InChI=1S/C30H31NO5/c1-33-28-17-22-12-14-31(20-24(22)18-29(28)34-2)13-6-7-15-35-25-11-10-23-16-26(21-8-4-3-5-9-21)30(32)36-27(23)19-25/h3-5,8-11,16-19H,6-7,12-15,20H2,1-2H3

>  <threshold>  (131) 
5

>  <pchembl>  (131) 
6.39

>  <Classification>  (131) 
1

>  <source>  (131) 
chembl_28

>  <SMILES>  (131) 
COc1cc2c(cc1OC)CN(CCCCOc1ccc3cc(-c4ccccc4)c(=O)oc3c1)CC2

>  <InChIKey>  (131) 
GOCUBCJXKMNDTJ-UHFFFAOYSA-N

$$$$

     RDKit          2D

 31 34  0  0  0  0  0  0  0  0999 V2000
    2.1308  -16.2224    0.0000 C   0  0  0  0  0  0  0  0  0  0  0  0
    2.1297  -17.0419    0.0000 C   0  0  0  0  0  0  0  0  0  0  0  0
    2.8377  -17.4509    0.0000 C   0  0  0  0  0  0  0  0  0  0  0  0
    2.8360  -15.8135    0.0000 C   0  0  0  0  0  0  0  0  0  0  0  0
    3.5446  -16.2188    0.0000 C   0  0  0  0  0  0  0  0  0  0  0  0
    3.5434  -17.0394    0.0000 C   0  0  0  0  0  0  0  0  0  0  0  0
    4.2496  -17.4484    0.0000 C   0  0  0  0  0  0  0  0  0  0  0  0
    4.9615  -17.0414    0.0000 C   0  0  0  0  0  0  0  0  0  0  0  0
    4.9627  -16.2208    0.0000 N   0  0  0  0  0  0  0  0  0  0  0  0
    4.2519  -15.8072    0.0000 C   0  0  0  0  0  0  0  0  0  0  0  0
    5.6713  -15.8139    0.0000 C   0  0  0  0  0  0  0  0  0  0  0  0
    6.3781  -16.2242    0.0000 C   0  0  0  0  0  0  0  0  0  0  0  0
    7.0868  -15.8173    0.0000 C   0  0  0  0  0  0  0  0  0  0  0  0
    7.7935  -16.2276    0.0000 O   0  0  0  0  0  0  0  0  0  0  0  0
    8.5000  -15.8169    0.0000 C   0  0  0  0  0  0  0  0  0  0  0  0
    9.2082  -16.2247    0.0000 C   0  0  0  0  0  0  0  0  0  0  0  0
    9.1984  -14.5903    0.0000 C   0  0  0  0  0  0  0  0  0  0  0  0
    8.4953  -15.0026    0.0000 C   0  0  0  0  0  0  0  0  0  0  0  0
    9.9122  -14.9966    0.0000 C   0  0  0  0  0  0  0  0  0  0  0  0
    9.9102  -15.8117    0.0000 C   0  0  0  0  0  0  0  0  0  0  0  0
   10.6112  -16.2188    0.0000 O   0  0  0  0  0  0  0  0  0  0  0  0
   11.3187  -15.8152    0.0000 C   0  0  0  0  0  0  0  0  0  0  0  0
   11.3208  -15.0001    0.0000 C   0  0  0  0  0  0  0  0  0  0  0  0
   10.6153  -14.5886    0.0000 C   0  0  0  0  0  0  0  0  0  0  0  0
   12.0249  -16.2265    0.0000 O   0  0  0  0  0  0  0  0  0  0  0  0
   12.0299  -14.5940    0.0000 C   0  0  0  0  0  0  0  0  0  0  0  0
   10.6161  -13.7714    0.0000 C   0  0  0  0  0  0  0  0  0  0  0  0
    1.4230  -15.8139    0.0000 O   0  0  0  0  0  0  0  0  0  0  0  0
    0.7154  -16.2227    0.0000 C   0  0  0  0  0  0  0  0  0  0  0  0
    1.4217  -17.4499    0.0000 O   0  0  0  0  0  0  0  0  0  0  0  0
    0.7143  -17.0408    0.0000 C   0  0  0  0  0  0  0  0  0  0  0  0
  1  2  2  0
  2  3  1  0
  3  6  2  0
  5  4  2  0
  4  1  1  0
  5  6  1  0
  5 10  1  0
  6  7  1  0
  7  8  1  0
  8  9  1  0
  9 10  1  0
  9 11  1  0
 11 12  1  0
 12 13  1  0
 13 14  1  0
 14 15  1  0
 15 16  2  0
 16 20  1  0
 19 17  1  0
 17 18  2  0
 18 15  1  0
 19 20  2  0
 19 24  1  0
 20 21  1  0
 21 22  1  0
 22 23  1  0
 23 24  2  0
 22 25  2  0
 23 26  1  0
 24 27  1  0
  1 28  1  0
 28 29  1  0
  2 30  1  0
 30 31  1  0
M  END
>  <Curated_InChIs>  (132) 
InChI=1S/C25H29NO5/c1-16-17(2)25(27)31-22-14-20(6-7-21(16)22)30-11-5-9-26-10-8-18-12-23(28-3)24(29-4)13-19(18)15-26/h6-7,12-14H,5,8-11,15H2,1-4H3

>  <threshold>  (132) 
5

>  <pchembl>  (132) 
6.72

>  <Classification>  (132) 
1

>  <source>  (132) 
chembl_28

>  <SMILES>  (132) 
COc1cc2c(cc1OC)CN(CCCOc1ccc3c(C)c(C)c(=O)oc3c1)CC2

>  <InChIKey>  (132) 
GWSRBMJZRDYLBB-UHFFFAOYSA-N

$$$$

     RDKit          2D

 36 40  0  0  0  0  0  0  0  0999 V2000
    8.5019   -5.2349    0.0000 O   0  0  0  0  0  0  0  0  0  0  0  0
    8.5175   -4.4179    0.0000 C   0  0  0  0  0  0  0  0  0  0  0  0
    9.2335   -4.0241    0.0000 C   0  0  0  0  0  0  0  0  0  0  0  0
    7.8313   -3.1844    0.0000 C   0  0  0  0  0  0  0  0  0  0  0  0
    7.8189   -3.9994    0.0000 C   0  0  0  0  0  0  0  0  0  0  0  0
    8.5491   -2.7850    0.0000 C   0  0  0  0  0  0  0  0  0  0  0  0
    9.2448   -3.2097    0.0000 C   0  0  0  0  0  0  0  0  0  0  0  0
    9.9565   -2.8216    0.0000 O   0  0  0  0  0  0  0  0  0  0  0  0
    9.9787   -2.0074    0.0000 C   0  0  0  0  0  0  0  0  0  0  0  0
    9.2829   -1.5827    0.0000 C   0  0  0  0  0  0  0  0  0  0  0  0
    8.5650   -1.9722    0.0000 C   0  0  0  0  0  0  0  0  0  0  0  0
   10.6967   -1.6172    0.0000 O   0  0  0  0  0  0  0  0  0  0  0  0
    9.3037   -0.7658    0.0000 C   0  0  0  0  0  0  0  0  0  0  0  0
    7.8669   -1.5475    0.0000 C   0  0  0  0  0  0  0  0  0  0  0  0
    8.5023   -7.6968    0.0000 C   0  0  0  0  0  0  0  0  0  0  0  0
    2.8406   -6.8719    0.0000 C   0  0  0  0  0  0  0  0  0  0  0  0
    2.8395   -7.6915    0.0000 C   0  0  0  0  0  0  0  0  0  0  0  0
    3.5475   -8.1004    0.0000 C   0  0  0  0  0  0  0  0  0  0  0  0
    3.5457   -6.4631    0.0000 C   0  0  0  0  0  0  0  0  0  0  0  0
    4.2543   -6.8683    0.0000 C   0  0  0  0  0  0  0  0  0  0  0  0
    4.2532   -7.6890    0.0000 C   0  0  0  0  0  0  0  0  0  0  0  0
    4.9594   -8.0980    0.0000 C   0  0  0  0  0  0  0  0  0  0  0  0
    5.6712   -7.6910    0.0000 C   0  0  0  0  0  0  0  0  0  0  0  0
    5.6724   -6.8703    0.0000 N   0  0  0  0  0  0  0  0  0  0  0  0
    4.9617   -6.4567    0.0000 C   0  0  0  0  0  0  0  0  0  0  0  0
    6.3811   -6.4634    0.0000 C   0  0  0  0  0  0  0  0  0  0  0  0
    7.0878   -6.8738    0.0000 C   0  0  0  0  0  0  0  0  0  0  0  0
    2.1328   -6.4635    0.0000 O   0  0  0  0  0  0  0  0  0  0  0  0
    1.4252   -6.8723    0.0000 C   0  0  0  0  0  0  0  0  0  0  0  0
    2.1314   -8.0995    0.0000 O   0  0  0  0  0  0  0  0  0  0  0  0
    1.4240   -7.6903    0.0000 C   0  0  0  0  0  0  0  0  0  0  0  0
    7.0842   -7.6902    0.0000 C   0  0  0  0  0  0  0  0  0  0  0  0
    7.7901   -8.1004    0.0000 C   0  0  0  0  0  0  0  0  0  0  0  0
    8.4991   -6.8721    0.0000 C   0  0  0  0  0  0  0  0  0  0  0  0
    7.7927   -6.4656    0.0000 C   0  0  0  0  0  0  0  0  0  0  0  0
    7.7915   -5.6484    0.0000 C   0  0  0  0  0  0  0  0  0  0  0  0
  1  2  1  0
  2  3  2  0
  3  7  1  0
  6  4  1  0
  4  5  2  0
  5  2  1  0
  6  7  2  0
  6 11  1  0
  7  8  1  0
  8  9  1  0
  9 10  1  0
 10 11  2  0
  9 12  2  0
 10 13  1  0
 11 14  1  0
 16 17  2  0
 17 18  1  0
 18 21  2  0
 20 19  2  0
 19 16  1  0
 20 21  1  0
 20 25  1  0
 21 22  1  0
 22 23  1  0
 23 24  1  0
 24 25  1  0
 24 26  1  0
 26 27  1  0
 16 28  1  0
 28 29  1  0
 17 30  1  0
 30 31  1  0
 27 32  2  0
 32 33  1  0
 33 15  2  0
 15 34  1  0
 34 35  2  0
 35 27  1  0
 35 36  1  0
 36  1  1  0
M  END
>  <Curated_InChIs>  (133) 
InChI=1S/C30H31NO5/c1-19-20(2)30(32)36-27-15-25(9-10-26(19)27)35-18-23-8-6-5-7-22(23)16-31-12-11-21-13-28(33-3)29(34-4)14-24(21)17-31/h5-10,13-15H,11-12,16-18H2,1-4H3

>  <threshold>  (133) 
5

>  <pchembl>  (133) 
6.8

>  <Classification>  (133) 
1

>  <source>  (133) 
chembl_28

>  <SMILES>  (133) 
COc1cc2c(cc1OC)CN(Cc1ccccc1COc1ccc3c(C)c(C)c(=O)oc3c1)CC2

>  <InChIKey>  (133) 
GZQFGCSRBLIEMI-UHFFFAOYSA-N

$$$$

     RDKit          2D

 29 33  0  0  0  0  0  0  0  0999 V2000
    2.7886  -14.1110    0.0000 C   0  0  0  0  0  0  0  0  0  0  0  0
    2.7874  -14.9305    0.0000 C   0  0  0  0  0  0  0  0  0  0  0  0
    3.4955  -15.3395    0.0000 C   0  0  0  0  0  0  0  0  0  0  0  0
    3.4937  -13.7021    0.0000 C   0  0  0  0  0  0  0  0  0  0  0  0
    4.2023  -14.1074    0.0000 C   0  0  0  0  0  0  0  0  0  0  0  0
    4.2026  -14.9305    0.0000 C   0  0  0  0  0  0  0  0  0  0  0  0
    4.9855  -15.1847    0.0000 N   0  0  0  0  0  0  0  0  0  0  0  0
    4.9851  -13.8528    0.0000 C   0  0  0  0  0  0  0  0  0  0  0  0
    5.4693  -14.5199    0.0000 C   0  0  0  0  0  0  0  0  0  0  0  0
    6.2846  -14.4346    0.0000 C   0  0  0  0  0  0  0  0  0  0  0  0
    6.6221  -13.6832    0.0000 N   0  0  0  0  0  0  0  0  0  0  0  0
    6.1379  -13.0161    0.0000 C   0  0  0  0  0  0  0  0  0  0  0  0
    5.3162  -13.1004    0.0000 C   0  0  0  0  0  0  0  0  0  0  0  0
    7.4350  -13.5994    0.0000 C   0  0  0  0  0  0  0  0  0  0  0  0
    7.9141  -14.2614    0.0000 O   0  0  0  0  0  0  0  0  0  0  0  0
    7.7687  -12.8534    0.0000 C   0  0  0  0  0  0  0  0  0  0  0  0
    8.5819  -12.7736    0.0000 C   0  0  0  0  0  0  0  0  0  0  0  0
    8.9156  -12.0285    0.0000 C   0  0  0  0  0  0  0  0  0  0  0  0
    8.4364  -11.3655    0.0000 C   0  0  0  0  0  0  0  0  0  0  0  0
    7.6196  -11.4525    0.0000 C   0  0  0  0  0  0  0  0  0  0  0  0
    7.2895  -12.1977    0.0000 C   0  0  0  0  0  0  0  0  0  0  0  0
    6.7646  -15.0933    0.0000 C   0  0  0  0  0  0  0  0  0  0  0  0
    6.4291  -15.8397    0.0000 C   0  0  0  0  0  0  0  0  0  0  0  0
    6.9075  -16.5013    0.0000 C   0  0  0  0  0  0  0  0  0  0  0  0
    7.7213  -16.4177    0.0000 C   0  0  0  0  0  0  0  0  0  0  0  0
    8.0544  -15.6669    0.0000 C   0  0  0  0  0  0  0  0  0  0  0  0
    7.5740  -15.0084    0.0000 C   0  0  0  0  0  0  0  0  0  0  0  0
    8.8669  -15.5801    0.0000 O   0  0  0  0  0  0  0  0  0  0  0  0
    9.3484  -16.2404    0.0000 C   0  0  0  0  0  0  0  0  0  0  0  0
  1  2  2  0
  2  3  1  0
  3  6  2  0
  5  4  2  0
  4  1  1  0
  5  6  1  0
  6  7  1  0
  7  9  1  0
  8  5  1  0
  8  9  2  0
  8 13  1  0
  9 10  1  0
 10 11  1  0
 11 12  1  0
 12 13  1  0
 11 14  1  0
 14 15  2  0
 14 16  1  0
 16 17  2  0
 17 18  1  0
 18 19  2  0
 19 20  1  0
 20 21  2  0
 21 16  1  0
 22 23  2  0
 23 24  1  0
 24 25  2  0
 25 26  1  0
 26 27  2  0
 27 22  1  0
 10 22  1  0
 26 28  1  0
 28 29  1  0
M  END
>  <Curated_InChIs>  (134) 
InChI=1S/C25H22N2O2/c1-29-19-11-7-10-18(16-19)24-23-21(20-12-5-6-13-22(20)26-23)14-15-27(24)25(28)17-8-3-2-4-9-17/h2-13,16,24,26H,14-15H2,1H3

>  <threshold>  (134) 
5

>  <pchembl>  (134) 
5.21

>  <Classification>  (134) 
1

>  <source>  (134) 
chembl_28

>  <SMILES>  (134) 
COc1cccc(C2c3[nH]c4ccccc4c3CCN2C(=O)c2ccccc2)c1

>  <InChIKey>  (134) 
HBFNBIUDWKZWTH-UHFFFAOYSA-N

$$$$

     RDKit          2D

 27 28  0  0  0  0  0  0  0  0999 V2000
    4.4312   -9.4018    0.0000 C   0  0  0  0  0  0  0  0  0  0  0  0
    4.4301  -10.2213    0.0000 C   0  0  0  0  0  0  0  0  0  0  0  0
    5.1381  -10.6303    0.0000 C   0  0  0  0  0  0  0  0  0  0  0  0
    5.8478  -10.2209    0.0000 C   0  0  0  0  0  0  0  0  0  0  0  0
    5.8450   -9.3982    0.0000 C   0  0  0  0  0  0  0  0  0  0  0  0
    5.1363   -8.9929    0.0000 C   0  0  0  0  0  0  0  0  0  0  0  0
    6.5511   -8.9869    0.0000 C   0  0  0  0  0  0  0  0  0  0  0  0
    7.2604   -9.3929    0.0000 C   0  0  0  0  0  0  0  0  0  0  0  0
    7.9665   -8.9816    0.0000 C   0  0  0  0  0  0  0  0  0  0  0  0
    8.6758   -9.3875    0.0000 C   0  0  0  0  0  0  0  0  0  0  0  0
    8.6758  -10.2036    0.0000 C   0  0  0  0  0  0  0  0  0  0  0  0
    9.3842  -10.6094    0.0000 C   0  0  0  0  0  0  0  0  0  0  0  0
   10.0913  -10.1981    0.0000 C   0  0  0  0  0  0  0  0  0  0  0  0
   10.0856   -9.3767    0.0000 C   0  0  0  0  0  0  0  0  0  0  0  0
    9.3766   -8.9746    0.0000 C   0  0  0  0  0  0  0  0  0  0  0  0
    6.5561  -10.6283    0.0000 O   0  0  0  0  0  0  0  0  0  0  0  0
    3.7220  -10.6294    0.0000 O   0  0  0  0  0  0  0  0  0  0  0  0
    3.7234   -8.9934    0.0000 C   0  0  0  0  0  0  0  0  0  0  0  0
    5.1339   -8.1757    0.0000 O   0  0  0  0  0  0  0  0  0  0  0  0
    6.5574  -11.4455    0.0000 C   0  0  0  0  0  0  0  0  0  0  0  0
    6.5480   -8.1697    0.0000 O   0  0  0  0  0  0  0  0  0  0  0  0
    3.7214  -11.4466    0.0000 C   0  0  0  0  0  0  0  0  0  0  0  0
    3.0158   -9.4021    0.0000 C   0  0  0  0  0  0  0  0  0  0  0  0
    2.3080   -8.9937    0.0000 C   0  0  0  0  0  0  0  0  0  0  0  0
    1.6004   -9.4025    0.0000 C   0  0  0  0  0  0  0  0  0  0  0  0
    2.3078   -8.1765    0.0000 C   0  0  0  0  0  0  0  0  0  0  0  0
    9.3868  -11.4266    0.0000 Cl  0  0  0  0  0  0  0  0  0  0  0  0
  1  2  2  0
  2  3  1  0
  3  4  2  0
  4  5  1  0
  5  6  2  0
  6  1  1  0
  5  7  1  0
  7  8  1  0
  8  9  2  0
  9 10  1  0
 10 11  2  0
 11 12  1  0
 12 13  2  0
 13 14  1  0
 14 15  2  0
 15 10  1  0
  4 16  1  0
  2 17  1  0
  1 18  1  0
  6 19  1  0
 16 20  1  0
  7 21  2  0
 17 22  1  0
 18 23  1  0
 23 24  2  3
 24 25  1  0
 24 26  1  0
 12 27  1  0
M  END
>  <Curated_InChIs>  (135) 
InChI=1S/C22H23ClO4/c1-14(2)8-10-17-19(26-3)13-20(27-4)21(22(17)25)18(24)11-9-15-6-5-7-16(23)12-15/h5-9,11-13,25H,10H2,1-4H3

>  <threshold>  (135) 
5

>  <pchembl>  (135) 
5.03

>  <Classification>  (135) 
1

>  <source>  (135) 
chembl_28

>  <SMILES>  (135) 
COc1cc(OC)c(C(=O)/C=C/c2cccc(Cl)c2)c(O)c1CC=C(C)C

>  <InChIKey>  (135) 
HCJUOZPCSLKOHC-PKNBQFBNSA-N

$$$$

     RDKit          2D

 40 43  0  0  0  0  0  0  0  0999 V2000
    8.5021  -23.8067    0.0000 C   0  0  0  0  0  0  0  0  0  0  0  0
    8.5010  -24.6341    0.0000 C   0  0  0  0  0  0  0  0  0  0  0  0
    9.2158  -25.0469    0.0000 C   0  0  0  0  0  0  0  0  0  0  0  0
    9.2140  -23.3940    0.0000 C   0  0  0  0  0  0  0  0  0  0  0  0
    9.9293  -23.8031    0.0000 C   0  0  0  0  0  0  0  0  0  0  0  0
    9.9327  -24.6361    0.0000 C   0  0  0  0  0  0  0  0  0  0  0  0
   10.6519  -25.0474    0.0000 C   0  0  0  0  0  0  0  0  0  0  0  0
   11.3723  -24.6302    0.0000 N   0  0  0  0  0  0  0  0  0  0  0  0
   11.3688  -23.7972    0.0000 C   0  0  0  0  0  0  0  0  0  0  0  0
   10.6450  -23.3814    0.0000 C   0  0  0  0  0  0  0  0  0  0  0  0
   12.0878  -25.0408    0.0000 C   0  0  0  0  0  0  0  0  0  0  0  0
   12.8011  -24.6263    0.0000 C   0  0  0  0  0  0  0  0  0  0  0  0
   13.5166  -25.0369    0.0000 C   0  0  0  0  0  0  0  0  0  0  0  0
   13.5152  -25.8619    0.0000 C   0  0  0  0  0  0  0  0  0  0  0  0
   14.2300  -26.2724    0.0000 C   0  0  0  0  0  0  0  0  0  0  0  0
   14.9442  -25.8579    0.0000 C   0  0  0  0  0  0  0  0  0  0  0  0
   14.9393  -25.0287    0.0000 C   0  0  0  0  0  0  0  0  0  0  0  0
   14.2241  -24.6220    0.0000 C   0  0  0  0  0  0  0  0  0  0  0  0
   15.6604  -26.2675    0.0000 N   0  0  0  0  0  0  0  0  0  0  0  0
   16.3730  -25.8521    0.0000 C   0  0  0  0  0  0  0  0  0  0  0  0
   17.0892  -26.2617    0.0000 C   0  0  0  0  0  0  0  0  0  0  0  0
   16.3697  -25.0272    0.0000 O   0  0  0  0  0  0  0  0  0  0  0  0
   17.0911  -27.0868    0.0000 C   0  0  0  0  0  0  0  0  0  0  0  0
   17.8063  -27.4963    0.0000 C   0  0  0  0  0  0  0  0  0  0  0  0
    7.7877  -23.3945    0.0000 O   0  0  0  0  0  0  0  0  0  0  0  0
    7.7875  -22.5695    0.0000 C   0  0  0  0  0  0  0  0  0  0  0  0
    7.7863  -25.0460    0.0000 O   0  0  0  0  0  0  0  0  0  0  0  0
    7.0721  -24.6329    0.0000 C   0  0  0  0  0  0  0  0  0  0  0  0
   17.8073  -28.3192    0.0000 C   0  0  0  0  0  0  0  0  0  0  0  0
   18.5218  -28.7287    0.0000 C   0  0  0  0  0  0  0  0  0  0  0  0
   19.2350  -28.3139    0.0000 C   0  0  0  0  0  0  0  0  0  0  0  0
   19.2293  -27.4856    0.0000 C   0  0  0  0  0  0  0  0  0  0  0  0
   18.5144  -27.0798    0.0000 C   0  0  0  0  0  0  0  0  0  0  0  0
   18.5085  -26.2521    0.0000 N   0  0  0  0  0  0  0  0  0  0  0  0
   17.7908  -25.8452    0.0000 O   0  0  0  0  0  0  0  0  0  0  0  0
   19.2196  -25.8341    0.0000 O   0  0  0  0  0  0  0  0  0  0  0  0
   19.9515  -28.7229    0.0000 O   0  0  0  0  0  0  0  0  0  0  0  0
   18.5244  -29.5537    0.0000 O   0  0  0  0  0  0  0  0  0  0  0  0
   19.9556  -29.5479    0.0000 C   0  0  0  0  0  0  0  0  0  0  0  0
   17.8112  -29.9683    0.0000 C   0  0  0  0  0  0  0  0  0  0  0  0
 16 19  1  0
  7  8  1  0
 19 20  1  0
  8  9  1  0
 20 21  1  0
  9 10  1  0
 20 22  2  0
  5  6  1  0
 21 23  2  0
  8 11  1  0
 23 24  1  0
  1 25  1  0
 11 12  1  0
 25 26  1  0
  2  3  1  0
  2 27  1  0
 12 13  1  0
 27 28  1  0
  3  6  2  0
 24 29  2  0
 13 14  2  0
 29 30  1  0
  1  2  2  0
 30 31  2  0
 14 15  1  0
 31 32  1  0
  5  4  2  0
 32 33  2  0
 33 24  1  0
 15 16  2  0
  4  1  1  0
 16 17  1  0
 34 35  2  0
 34 36  1  0
 33 34  1  0
  5 10  1  0
 31 37  1  0
 17 18  2  0
 30 38  1  0
 18 13  1  0
 37 39  1  0
  6  7  1  0
 38 40  1  0
M  CHG  2  34   1  36  -1
M  END
>  <Curated_InChIs>  (136) 
InChI=1S/C30H33N3O7/c1-37-26-15-21-12-14-32(19-23(21)17-28(26)39-3)13-11-20-5-8-24(9-6-20)31-30(34)10-7-22-16-27(38-2)29(40-4)18-25(22)33(35)36/h5-10,15-18H,11-14,19H2,1-4H3,(H,31,34)

>  <threshold>  (136) 
5

>  <pchembl>  (136) 
5.82

>  <Classification>  (136) 
1

>  <source>  (136) 
chembl_28

>  <SMILES>  (136) 
COc1cc(/C=C/C(=O)Nc2ccc(CCN3CCc4cc(OC)c(OC)cc4C3)cc2)c([N+](=O)[O-])cc1OC

>  <InChIKey>  (136) 
HJSBLJRBBRYJDI-JXMROGBWSA-N

$$$$

     RDKit          2D

 33 37  0  0  0  0  0  0  0  0999 V2000
    7.3836   -3.0707    0.0000 C   0  0  0  0  0  0  0  0  0  0  0  0
    7.3836   -3.8920    0.0000 C   0  0  0  0  0  0  0  0  0  0  0  0
    8.0930   -4.2964    0.0000 O   0  0  0  0  0  0  0  0  0  0  0  0
    8.0930   -2.6538    0.0000 C   0  0  0  0  0  0  0  0  0  0  0  0
    8.7983   -3.0707    0.0000 C   0  0  0  0  0  0  0  0  0  0  0  0
    8.7967   -3.8902    0.0000 C   0  0  0  0  0  0  0  0  0  0  0  0
    9.5050   -4.2975    0.0000 C   0  0  0  0  0  0  0  0  0  0  0  0
   10.2155   -3.8905    0.0000 C   0  0  0  0  0  0  0  0  0  0  0  0
   10.2131   -3.0679    0.0000 C   0  0  0  0  0  0  0  0  0  0  0  0
    9.5042   -2.6601    0.0000 C   0  0  0  0  0  0  0  0  0  0  0  0
    8.0930   -1.8325    0.0000 O   0  0  0  0  0  0  0  0  0  0  0  0
    6.6724   -4.3016    0.0000 O   0  0  0  0  0  0  0  0  0  0  0  0
    5.9599   -3.8940    0.0000 C   0  0  0  0  0  0  0  0  0  0  0  0
    5.2487   -4.3037    0.0000 C   0  0  0  0  0  0  0  0  0  0  0  0
    4.5363   -3.8961    0.0000 N   0  0  0  0  0  0  0  0  0  0  0  0
    5.2499   -5.1250    0.0000 O   0  0  0  0  0  0  0  0  0  0  0  0
    3.8250   -4.3057    0.0000 C   0  0  0  0  0  0  0  0  0  0  0  0
    2.4076   -5.1276    0.0000 C   0  0  0  0  0  0  0  0  0  0  0  0
    3.1250   -5.5392    0.0000 C   0  0  0  0  0  0  0  0  0  0  0  0
    3.8287   -5.1238    0.0000 C   0  0  0  0  0  0  0  0  0  0  0  0
    6.6730   -2.6621    0.0000 C   0  0  0  0  0  0  0  0  0  0  0  0
    6.6719   -1.8397    0.0000 C   0  0  0  0  0  0  0  0  0  0  0  0
    5.9597   -1.4332    0.0000 C   0  0  0  0  0  0  0  0  0  0  0  0
    5.2481   -1.8440    0.0000 C   0  0  0  0  0  0  0  0  0  0  0  0
    5.2531   -2.6695    0.0000 C   0  0  0  0  0  0  0  0  0  0  0  0
    5.9659   -3.0764    0.0000 C   0  0  0  0  0  0  0  0  0  0  0  0
    2.4068   -4.3054    0.0000 C   0  0  0  0  0  0  0  0  0  0  0  0
    3.1177   -3.9011    0.0000 C   0  0  0  0  0  0  0  0  0  0  0  0
    3.1200   -3.0847    0.0000 C   0  0  0  0  0  0  0  0  0  0  0  0
    2.4121   -2.6715    0.0000 C   0  0  0  0  0  0  0  0  0  0  0  0
    1.7005   -3.0849    0.0000 C   0  0  0  0  0  0  0  0  0  0  0  0
    1.7017   -3.9001    0.0000 C   0  0  0  0  0  0  0  0  0  0  0  0
    4.5345   -1.4384    0.0000 C   0  0  0  0  0  0  0  0  0  0  0  0
  1  2  2  0
  1  4  1  0
  2  3  1  0
  3  6  1  0
  5  4  1  0
  5  6  2  0
  6  7  1  0
  7  8  2  0
  8  9  1  0
  9 10  2  0
 10  5  1  0
  4 11  2  0
  2 12  1  0
 12 13  1  0
 13 14  1  0
 14 15  1  0
 14 16  2  0
 15 17  1  0
 17 28  2  0
 27 18  2  0
 18 19  1  0
 19 20  2  0
 20 17  1  0
 21 22  2  0
 22 23  1  0
 23 24  2  0
 24 25  1  0
 25 26  2  0
 26 21  1  0
  1 21  1  0
 27 28  1  0
 28 29  1  0
 29 30  2  0
 30 31  1  0
 31 32  2  0
 32 27  1  0
 24 33  1  0
M  END
>  <Curated_InChIs>  (137) 
InChI=1S/C28H21NO4/c1-18-13-15-20(16-14-18)26-27(31)22-10-4-5-12-24(22)33-28(26)32-17-25(30)29-23-11-6-8-19-7-2-3-9-21(19)23/h2-16H,17H2,1H3,(H,29,30)

>  <threshold>  (137) 
5

>  <pchembl>  (137) 
5.72

>  <Classification>  (137) 
1

>  <source>  (137) 
chembl_28

>  <SMILES>  (137) 
Cc1ccc(-c2c(OCC(=O)Nc3cccc4ccccc34)oc3ccccc3c2=O)cc1

>  <InChIKey>  (137) 
HNMPJNVZPCCYIH-UHFFFAOYSA-N

$$$$

     RDKit          2D

 31 35  0  0  0  0  0  0  0  0999 V2000
    1.2656   -5.0558    0.0000 C   0  0  0  0  0  0  0  0  0  0  0  0
    1.2645   -5.8754    0.0000 C   0  0  0  0  0  0  0  0  0  0  0  0
    1.9725   -6.2843    0.0000 C   0  0  0  0  0  0  0  0  0  0  0  0
    1.9708   -4.6470    0.0000 C   0  0  0  0  0  0  0  0  0  0  0  0
    2.6794   -5.0522    0.0000 C   0  0  0  0  0  0  0  0  0  0  0  0
    2.6796   -5.8754    0.0000 C   0  0  0  0  0  0  0  0  0  0  0  0
    3.4626   -6.1296    0.0000 N   0  0  0  0  0  0  0  0  0  0  0  0
    3.4622   -4.7977    0.0000 C   0  0  0  0  0  0  0  0  0  0  0  0
    3.9464   -5.4648    0.0000 C   0  0  0  0  0  0  0  0  0  0  0  0
    4.7617   -5.3795    0.0000 C   0  0  0  0  0  0  0  0  0  0  0  0
    5.0991   -4.6281    0.0000 N   0  0  0  0  0  0  0  0  0  0  0  0
    4.6150   -3.9610    0.0000 C   0  0  0  0  0  0  0  0  0  0  0  0
    3.7933   -4.0453    0.0000 C   0  0  0  0  0  0  0  0  0  0  0  0
    5.9120   -4.5442    0.0000 C   0  0  0  0  0  0  0  0  0  0  0  0
    6.3911   -5.2062    0.0000 O   0  0  0  0  0  0  0  0  0  0  0  0
    6.2458   -3.7983    0.0000 C   0  0  0  0  0  0  0  0  0  0  0  0
    7.0589   -3.7184    0.0000 C   0  0  0  0  0  0  0  0  0  0  0  0
    7.3927   -2.9734    0.0000 C   0  0  0  0  0  0  0  0  0  0  0  0
    6.9134   -2.3104    0.0000 C   0  0  0  0  0  0  0  0  0  0  0  0
    6.0966   -2.3973    0.0000 C   0  0  0  0  0  0  0  0  0  0  0  0
    5.7666   -3.1426    0.0000 C   0  0  0  0  0  0  0  0  0  0  0  0
    5.2416   -6.0382    0.0000 C   0  0  0  0  0  0  0  0  0  0  0  0
    4.9062   -6.7845    0.0000 C   0  0  0  0  0  0  0  0  0  0  0  0
    5.3845   -7.4461    0.0000 C   0  0  0  0  0  0  0  0  0  0  0  0
    6.1983   -7.3626    0.0000 C   0  0  0  0  0  0  0  0  0  0  0  0
    6.5314   -6.6117    0.0000 C   0  0  0  0  0  0  0  0  0  0  0  0
    6.0510   -5.9533    0.0000 C   0  0  0  0  0  0  0  0  0  0  0  0
    7.2462   -1.5640    0.0000 O   0  0  0  0  0  0  0  0  0  0  0  0
    8.0590   -1.4790    0.0000 C   0  0  0  0  0  0  0  0  0  0  0  0
    5.0504   -8.1919    0.0000 O   0  0  0  0  0  0  0  0  0  0  0  0
    4.2375   -8.2754    0.0000 C   0  0  0  0  0  0  0  0  0  0  0  0
  1  2  2  0
  2  3  1  0
  3  6  2  0
  5  4  2  0
  4  1  1  0
  5  6  1  0
  6  7  1  0
  7  9  1  0
  8  5  1  0
  8  9  2  0
  8 13  1  0
  9 10  1  0
 10 11  1  0
 11 12  1  0
 12 13  1  0
 11 14  1  0
 14 15  2  0
 14 16  1  0
 16 17  2  0
 17 18  1  0
 18 19  2  0
 19 20  1  0
 20 21  2  0
 21 16  1  0
 22 23  2  0
 23 24  1  0
 24 25  2  0
 25 26  1  0
 26 27  2  0
 27 22  1  0
 10 22  1  0
 19 28  1  0
 28 29  1  0
 24 30  1  0
 30 31  1  0
M  END
>  <Curated_InChIs>  (138) 
InChI=1S/C26H24N2O3/c1-30-19-12-10-17(11-13-19)26(29)28-15-14-22-21-8-3-4-9-23(21)27-24(22)25(28)18-6-5-7-20(16-18)31-2/h3-13,16,25,27H,14-15H2,1-2H3

>  <threshold>  (138) 
5

>  <pchembl>  (138) 
5.47

>  <Classification>  (138) 
1

>  <source>  (138) 
chembl_28

>  <SMILES>  (138) 
COc1ccc(C(=O)N2CCc3c([nH]c4ccccc34)C2c2cccc(OC)c2)cc1

>  <InChIKey>  (138) 
HQMNMYXRCMXMRT-UHFFFAOYSA-N

$$$$

     RDKit          2D

 74 76  0  0  0  0  0  0  0  0999 V2000
    0.3875   -1.4292    0.0000 N   0  0  0  0  0  0  0  0  0  0  0  0
    2.1750   -3.4917    0.0000 N   0  0  0  0  0  0  0  0  0  0  0  0
    3.2125   -0.2042    0.0000 N   0  0  0  0  0  0  0  0  0  0  0  0
    2.7667   -3.4917    0.0000 C   0  0  0  0  0  0  0  0  0  0  0  0
    2.6292   -0.0417    0.0000 C   0  0  0  0  0  0  0  0  0  0  0  0
    0.5417   -0.2292    0.0000 C   0  0  0  0  0  0  0  0  0  0  0  0
    0.1667   -0.7542    0.0000 C   0  0  0  0  0  0  0  0  0  0  0  0
    4.9042   -4.0417    0.0000 N   0  0  0  0  0  0  0  0  0  0  0  0
    4.9042   -3.4417    0.0000 C   0  0  0  0  0  0  0  0  0  0  0  0
    5.4042   -2.5417    0.0000 N   0  0  0  0  0  0  0  0  0  0  0  0
    0.0875   -1.9417    0.0000 C   0  0  0  0  0  0  0  0  0  0  0  0
    1.2792   -2.9792    0.0000 C   0  0  0  0  0  0  0  0  0  0  0  0
    3.9500   -0.9292    0.0000 C   0  0  0  0  0  0  0  0  0  0  0  0
    3.6625   -4.0167    0.0000 N   0  0  0  0  0  0  0  0  0  0  0  0
    4.8917   -2.2542    0.0000 C   0  0  0  0  0  0  0  0  0  0  0  0
    1.4167   -0.1417    0.0000 O   0  0  0  0  0  0  0  0  0  0  0  0
    3.9625   -4.5167    0.0000 C   0  0  0  0  0  0  0  0  0  0  0  0
    4.3667   -1.3667    0.0000 N   0  0  0  0  0  0  0  0  0  0  0  0
    0.9792   -2.4667    0.0000 N   0  0  0  0  0  0  0  0  0  0  0  0
    3.0667   -4.0167    0.0000 C   0  0  0  0  0  0  0  0  0  0  0  0
    5.4167   -3.1417    0.0000 C   0  0  0  0  0  0  0  0  0  0  0  0
    2.1167    0.2583    0.0000 C   0  0  0  0  0  0  0  0  0  0  0  0
    0.3875   -2.4667    0.0000 C   0  0  0  0  0  0  0  0  0  0  0  0
    4.8875   -1.6542    0.0000 C   0  0  0  0  0  0  0  0  0  0  0  0
    3.3667   -0.7792    0.0000 C   0  0  0  0  0  0  0  0  0  0  0  0
    1.8750   -2.9792    0.0000 C   0  0  0  0  0  0  0  0  0  0  0  0
    4.5542   -4.5167    0.0000 C   0  0  0  0  0  0  0  0  0  0  0  0
   -0.5583   -0.6917    0.0000 C   0  0  0  0  0  0  0  0  0  0  0  0
    2.2125   -0.4667    0.0000 O   0  0  0  0  0  0  0  0  0  0  0  0
    3.0667   -2.9792    0.0000 O   0  0  0  0  0  0  0  0  0  0  0  0
    4.3792   -3.1542    0.0000 O   0  0  0  0  0  0  0  0  0  0  0  0
    0.2292    0.2708    0.0000 O   0  0  0  0  0  0  0  0  0  0  0  0
    0.9792   -3.4917    0.0000 O   0  0  0  0  0  0  0  0  0  0  0  0
    4.2417   -0.4292    0.0000 O   0  0  0  0  0  0  0  0  0  0  0  0
   -0.5083   -1.9417    0.0000 O   0  0  0  0  0  0  0  0  0  0  0  0
    4.3792   -2.5542    0.0000 O   0  0  0  0  0  0  0  0  0  0  0  0
    3.6625   -5.0417    0.0000 O   0  0  0  0  0  0  0  0  0  0  0  0
    5.4000   -1.3542    0.0000 C   0  0  0  0  0  0  0  0  0  0  0  0
    0.0875   -2.9792    0.0000 C   0  0  0  0  0  0  0  0  0  0  0  0
    2.7667   -4.5167    0.0000 C   0  0  0  0  0  0  0  0  0  0  0  0
    2.1125    0.8583    0.0000 C   0  0  0  0  0  0  0  0  0  0  0  0
    0.9792   -1.4292    0.0000 C   0  0  0  0  0  0  0  0  0  0  0  0
    1.8750   -4.0167    0.0000 C   0  0  0  0  0  0  0  0  0  0  0  0
    3.6375    0.2208    0.0000 C   0  0  0  0  0  0  0  0  0  0  0  0
    2.9417   -1.2042    0.0000 C   0  0  0  0  0  0  0  0  0  0  0  0
    2.1750   -2.4667    0.0000 C   0  0  0  0  0  0  0  0  0  0  0  0
    5.4750   -4.2292    0.0000 C   0  0  0  0  0  0  0  0  0  0  0  0
    5.9167   -2.2417    0.0000 C   0  0  0  0  0  0  0  0  0  0  0  0
    6.0000   -1.3542    0.0000 C   0  0  0  0  0  0  0  0  0  0  0  0
   -0.8708   -1.2042    0.0000 O   0  0  0  0  0  0  0  0  0  0  0  0
    7.1917   -1.3417    0.0000 C   0  0  0  0  0  0  0  0  0  0  0  0
    6.3000   -1.8667    0.0000 C   0  0  0  0  0  0  0  0  0  0  0  0
    6.2917   -0.8292    0.0000 C   0  0  0  0  0  0  0  0  0  0  0  0
    6.8875   -0.8292    0.0000 C   0  0  0  0  0  0  0  0  0  0  0  0
    6.8917   -1.8667    0.0000 C   0  0  0  0  0  0  0  0  0  0  0  0
    5.9292   -3.4292    0.0000 C   0  0  0  0  0  0  0  0  0  0  0  0
    4.9042   -5.0042    0.0000 C   0  0  0  0  0  0  0  0  0  0  0  0
    7.7917   -1.3417    0.0000 O   0  0  0  0  0  0  0  0  0  0  0  0
    5.4750   -4.8167    0.0000 C   0  0  0  0  0  0  0  0  0  0  0  0
   -0.5083   -2.9792    0.0000 C   0  0  0  0  0  0  0  0  0  0  0  0
   -0.6833   -0.3292    0.0000 C   0  0  0  0  0  0  0  0  0  0  0  0
   -1.0583   -0.6292    0.0000 C   0  0  0  0  0  0  0  0  0  0  0  0
    2.6292    1.1458    0.0000 C   0  0  0  0  0  0  0  0  0  0  0  0
    3.0667   -5.0417    0.0000 C   0  0  0  0  0  0  0  0  0  0  0  0
    2.1750   -4.5167    0.0000 C   0  0  0  0  0  0  0  0  0  0  0  0
    1.6042    1.1458    0.0000 C   0  0  0  0  0  0  0  0  0  0  0  0
    2.3667   -1.0417    0.0000 C   0  0  0  0  0  0  0  0  0  0  0  0
    3.0917   -1.7792    0.0000 C   0  0  0  0  0  0  0  0  0  0  0  0
    1.8750   -1.9417    0.0000 C   0  0  0  0  0  0  0  0  0  0  0  0
    2.7667   -2.4667    0.0000 C   0  0  0  0  0  0  0  0  0  0  0  0
   -0.8083   -3.4917    0.0000 C   0  0  0  0  0  0  0  0  0  0  0  0
   -0.8083   -2.4667    0.0000 C   0  0  0  0  0  0  0  0  0  0  0  0
    2.6292    1.7458    0.0000 C   0  0  0  0  0  0  0  0  0  0  0  0
    2.7667   -5.5542    0.0000 C   0  0  0  0  0  0  0  0  0  0  0  0
  2 26  1  0
  3  5  1  0
  4  2  1  0
  5 22  1  0
  6  7  1  0
  7  1  1  0
  8 27  1  0
  9  8  1  0
 10 15  1  0
 11  1  1  0
 12 19  1  0
 13 25  1  0
 20 14  1  1
 15 24  1  0
 16  6  1  0
 17 14  1  0
 18 13  1  0
 19 23  1  0
 20  4  1  0
 21 10  1  0
 22 16  1  6
 23 11  1  0
 24 18  1  0
 25  3  1  0
 26 12  1  0
 27 17  1  0
  7 28  1  1
 29  5  2  0
 30  4  2  0
 31  9  2  0
 32  6  2  0
 33 12  2  0
 34 13  2  0
 35 11  2  0
 36 15  2  0
 37 17  2  0
 24 38  1  1
 23 39  1  1
 20 40  1  0
 22 41  1  0
 42  1  1  0
 43  2  1  0
 44  3  1  0
 25 45  1  6
 26 46  1  6
 47  8  1  0
 48 10  1  0
 49 38  1  0
 50 28  1  0
 51 54  2  0
 52 49  1  0
 53 49  2  0
 54 53  1  0
 55 52  2  0
 21 56  1  6
 27 57  1  1
 58 51  1  0
 59 57  1  0
 60 39  1  0
 61 28  1  0
 62 28  1  0
 63 41  1  0
 64 40  1  0
 40 65  1  6
 41 66  1  1
 67 45  1  0
 68 45  1  0
 69 46  1  0
 70 46  1  0
 71 60  1  0
 72 60  1  0
 73 63  1  0
 74 64  1  0
 47 59  1  0
 21  9  1  0
 51 55  1  0
M  END
>  <Curated_InChIs>  (139) 
InChI=1S/C54H88N8O12/c1-18-32(9)40-51(70)59(15)41(30(5)6)46(65)55-37(27-29(3)4)50(69)61(17)44(54(12,13)73)53(72)74-43(33(10)19-2)52(71)60(16)42(31(7)8)47(66)56-38(28-35-22-24-36(63)25-23-35)49(68)58(14)34(11)48(67)62-26-20-21-39(62)45(64)57-40/h22-25,29-34,37-44,63,73H,18-21,26-28H2,1-17H3,(H,55,65)(H,56,66)(H,57,64)

>  <threshold>  (139) 
5

>  <pchembl>  (139) 
5.24

>  <Classification>  (139) 
1

>  <source>  (139) 
chembl_28

>  <SMILES>  (139) 
CC[C@H](C)[C@@H]1NC(=O)[C@@H]2CCCN2C(=O)[C@@H](C)N(C)C(=O)[C@H](Cc2ccc(O)cc2)NC(=O)[C@H](C(C)C)N(C)C(=O)[C@@H]([C@@H](C)CC)OC(=O)[C@H](C(C)(C)O)N(C)C(=O)[C@H](CC(C)C)NC(=O)[C@H](C(C)C)N(C)C1=O

>  <InChIKey>  (139) 
HVKRDVWLTZLNHZ-MIJUZMFWSA-N

$$$$

     RDKit          2D

 28 30  0  0  0  0  0  0  0  0999 V2000
   38.2721   -2.4868    0.0000 C   0  0  0  0  0  0  0  0  0  0  0  0
   38.2721   -3.3070    0.0000 C   0  0  0  0  0  0  0  0  0  0  0  0
   38.9846   -3.7170    0.0000 C   0  0  0  0  0  0  0  0  0  0  0  0
   39.6918   -3.3015    0.0000 C   0  0  0  0  0  0  0  0  0  0  0  0
   39.6861   -2.4760    0.0000 C   0  0  0  0  0  0  0  0  0  0  0  0
   38.9771   -2.0738    0.0000 C   0  0  0  0  0  0  0  0  0  0  0  0
   40.4056   -3.7149    0.0000 N   0  0  0  0  0  0  0  0  0  0  0  0
   40.4078   -4.5371    0.0000 C   0  0  0  0  0  0  0  0  0  0  0  0
   41.1176   -4.9421    0.0000 C   0  0  0  0  0  0  0  0  0  0  0  0
   41.8298   -4.5333    0.0000 N   0  0  0  0  0  0  0  0  0  0  0  0
   41.8276   -3.7111    0.0000 C   0  0  0  0  0  0  0  0  0  0  0  0
   41.1132   -3.2975    0.0000 C   0  0  0  0  0  0  0  0  0  0  0  0
   37.5610   -3.7209    0.0000 C   0  0  0  0  0  0  0  0  0  0  0  0
   36.8484   -3.3093    0.0000 C   0  0  0  0  0  0  0  0  0  0  0  0
   36.1373   -3.7232    0.0000 C   0  0  0  0  0  0  0  0  0  0  0  0
   35.4248   -3.3117    0.0000 C   0  0  0  0  0  0  0  0  0  0  0  0
   36.1386   -4.5446    0.0000 O   0  0  0  0  0  0  0  0  0  0  0  0
   35.4269   -2.4910    0.0000 C   0  0  0  0  0  0  0  0  0  0  0  0
   34.7153   -2.0836    0.0000 C   0  0  0  0  0  0  0  0  0  0  0  0
   34.0031   -2.4934    0.0000 C   0  0  0  0  0  0  0  0  0  0  0  0
   34.0071   -3.3190    0.0000 C   0  0  0  0  0  0  0  0  0  0  0  0
   34.7194   -3.7268    0.0000 C   0  0  0  0  0  0  0  0  0  0  0  0
   34.7243   -4.5481    0.0000 O   0  0  0  0  0  0  0  0  0  0  0  0
   34.0149   -4.9609    0.0000 C   0  0  0  0  0  0  0  0  0  0  0  0
   33.2942   -2.0870    0.0000 O   0  0  0  0  0  0  0  0  0  0  0  0
   33.2918   -1.2656    0.0000 C   0  0  0  0  0  0  0  0  0  0  0  0
   36.1391   -2.0829    0.0000 O   0  0  0  0  0  0  0  0  0  0  0  0
   34.7143   -1.2623    0.0000 C   0  0  0  0  0  0  0  0  0  0  0  0
  1  2  2  0
  2  3  1  0
  3  4  2  0
  4  5  1  0
  5  6  2  0
  6  1  1  0
  7  8  1  0
  7 12  1  0
  8  9  1  0
  9 10  1  0
 10 11  1  0
 11 12  1  0
  4  7  1  0
  2 13  1  0
 13 14  2  0
 14 15  1  0
 15 16  1  0
 15 17  2  0
 16 18  2  0
 18 19  1  0
 19 20  2  0
 20 21  1  0
 21 22  2  0
 22 16  1  0
 22 23  1  0
 23 24  1  0
 20 25  1  0
 25 26  1  0
 18 27  1  0
 19 28  1  0
M  END
>  <Curated_InChIs>  (140) 
InChI=1S/C22H26N2O4/c1-15-19(27-2)14-20(28-3)21(22(15)26)18(25)8-7-16-5-4-6-17(13-16)24-11-9-23-10-12-24/h4-8,13-14,23,26H,9-12H2,1-3H3

>  <threshold>  (140) 
5

>  <pchembl>  (140) 
5.4

>  <Classification>  (140) 
1

>  <source>  (140) 
chembl_28

>  <SMILES>  (140) 
COc1cc(OC)c(C(=O)/C=C/c2cccc(N3CCNCC3)c2)c(O)c1C

>  <InChIKey>  (140) 
HZYIXHJGPMSMAU-BQYQJAHWSA-N

$$$$

     RDKit          2D

 29 32  0  0  0  0  0  0  0  0999 V2000
   10.2218   -8.3953    0.0000 C   0  0  0  0  0  0  0  0  0  0  0  0
   11.0390   -8.3953    0.0000 C   0  0  0  0  0  0  0  0  0  0  0  0
   11.4476   -7.6862    0.0000 C   0  0  0  0  0  0  0  0  0  0  0  0
   12.2648   -7.6862    0.0000 C   0  0  0  0  0  0  0  0  0  0  0  0
   12.6734   -8.3953    0.0000 C   0  0  0  0  0  0  0  0  0  0  0  0
   12.2648   -9.1044    0.0000 C   0  0  0  0  0  0  0  0  0  0  0  0
   11.4476   -9.1044    0.0000 C   0  0  0  0  0  0  0  0  0  0  0  0
    9.8132   -9.1044    0.0000 O   0  0  0  0  0  0  0  0  0  0  0  0
    9.8132   -7.6862    0.0000 N   0  0  0  0  0  0  0  0  0  0  0  0
   10.2218   -6.9812    0.0000 C   0  0  0  0  0  0  0  0  0  0  0  0
    9.8132   -6.2721    0.0000 C   0  0  0  0  0  0  0  0  0  0  0  0
   10.2218   -5.5630    0.0000 C   0  0  0  0  0  0  0  0  0  0  0  0
   11.0390   -5.5630    0.0000 C   0  0  0  0  0  0  0  0  0  0  0  0
   11.4476   -6.2721    0.0000 C   0  0  0  0  0  0  0  0  0  0  0  0
   11.0390   -6.9812    0.0000 C   0  0  0  0  0  0  0  0  0  0  0  0
    8.5158   -6.9313    0.0000 N   0  0  0  0  0  0  0  0  0  0  0  0
    7.7386   -6.6807    0.0000 N   0  0  0  0  0  0  0  0  0  0  0  0
    7.7386   -5.8635    0.0000 N   0  0  0  0  0  0  0  0  0  0  0  0
    8.5158   -5.6130    0.0000 N   0  0  0  0  0  0  0  0  0  0  0  0
    8.9960   -6.2721    0.0000 C   0  0  0  0  0  0  0  0  0  0  0  0
    7.0795   -7.1609    0.0000 C   0  0  0  0  0  0  0  0  0  0  0  0
    7.1635   -7.9754    0.0000 C   0  0  0  0  0  0  0  0  0  0  0  0
    6.5044   -8.4555    0.0000 C   0  0  0  0  0  0  0  0  0  0  0  0
    5.7571   -8.1212    0.0000 C   0  0  0  0  0  0  0  0  0  0  0  0
    5.6731   -7.3066    0.0000 C   0  0  0  0  0  0  0  0  0  0  0  0
    6.3322   -6.8265    0.0000 C   0  0  0  0  0  0  0  0  0  0  0  0
   12.6770   -9.8135    0.0000 N   0  0  0  0  0  0  0  0  0  0  0  0
   13.4942   -9.8132    0.0000 O   0  0  0  0  0  0  0  0  0  0  0  0
   12.2687  -10.5214    0.0000 O   0  0  0  0  0  0  0  0  0  0  0  0
  1  2  1  0
  2  3  2  0
  3  4  1  0
  4  5  2  0
  5  6  1  0
  6  7  2  0
  2  7  1  0
  1  8  2  0
  1  9  1  0
 10 11  1  0
 11 12  2  0
 12 13  1  0
 13 14  2  0
 14 15  1  0
 10 15  2  0
 16 17  1  0
 17 18  1  0
 18 19  2  0
 19 20  1  0
 16 20  2  0
 21 22  2  0
 22 23  1  0
 23 24  2  0
 24 25  1  0
 25 26  2  0
 21 26  1  0
 17 21  1  0
 11 20  1  0
  9 10  1  0
 27 28  2  0
 27 29  1  0
  6 27  1  0
M  CHG  2  27   1  29  -1
M  END
>  <Curated_InChIs>  (141) 
InChI=1S/C20H14N6O3/c27-20(14-7-6-10-16(13-14)26(28)29)21-18-12-5-4-11-17(18)19-22-24-25(23-19)15-8-2-1-3-9-15/h1-13H,(H,21,27)

>  <threshold>  (141) 
5

>  <pchembl>  (141) 
5.03

>  <Classification>  (141) 
1

>  <source>  (141) 
chembl_28

>  <SMILES>  (141) 
O=C(Nc1ccccc1-c1nnn(-c2ccccc2)n1)c1cccc([N+](=O)[O-])c1

>  <InChIKey>  (141) 
IEIQBMNYLHNEDD-UHFFFAOYSA-N

$$$$

     RDKit          2D

 51 55  0  0  0  0  0  0  0  0999 V2000
   -0.6608    4.2627    0.0000 C   0  0  0  0  0  0  0  0  0  0  0  0
   -0.1512    5.6628    0.0000 C   0  0  0  0  0  0  0  0  0  0  0  0
    1.3278    5.9546    0.0000 C   0  0  0  0  0  0  0  0  0  0  0  0
    0.2983    3.1261    0.0000 C   0  0  0  0  0  0  0  0  0  0  0  0
    1.7602    3.3709    0.0000 C   0  0  0  0  0  0  0  0  0  0  0  0
    2.2903    4.8274    0.0000 C   0  0  0  0  0  0  0  0  0  0  0  0
    3.2673    3.6524    0.0000 C   0  0  0  0  0  0  0  0  0  0  0  0
    5.0903    2.9889    0.0000 C   0  0  0  0  0  0  0  0  0  0  0  0
    4.0058    1.9682    0.0000 C   0  0  0  0  0  0  0  0  0  0  0  0
    2.5151    2.1703    0.0000 C   0  0  0  0  0  0  0  0  0  0  0  0
   -0.6713    1.9801    0.0000 O   0  0  0  0  0  0  0  0  0  0  0  0
   -0.1647    0.5674    0.0000 C   0  0  0  0  0  0  0  0  0  0  0  0
   -0.9406   -0.3480    0.0000 C   0  0  0  0  0  0  0  0  0  0  0  0
    0.8192    0.3885    0.0000 O   0  0  0  0  0  0  0  0  0  0  0  0
    1.6742    0.9241    0.0000 O   0  0  0  0  0  0  0  0  0  0  0  0
    1.8304   -0.5686    0.0000 C   0  0  0  0  0  0  0  0  0  0  0  0
    0.6163   -1.4510    0.0000 C   0  0  0  0  0  0  0  0  0  0  0  0
    2.7439   -0.9755    0.0000 O   0  0  0  0  0  0  0  0  0  0  0  0
    0.7703   -2.9431    0.0000 C   0  0  0  0  0  0  0  0  0  0  0  0
   -0.4449   -3.8225    0.0000 C   0  0  0  0  0  0  0  0  0  0  0  0
   -1.8140   -3.2099    0.0000 C   0  0  0  0  0  0  0  0  0  0  0  0
   -1.9681   -1.7178    0.0000 C   0  0  0  0  0  0  0  0  0  0  0  0
   -0.7529   -0.8384    0.0000 C   0  0  0  0  0  0  0  0  0  0  0  0
    1.2689    2.2761    0.0000 C   0  0  0  0  0  0  0  0  0  0  0  0
    4.4722    0.5395    0.0000 O   0  0  0  0  0  0  0  0  0  0  0  0
    2.5113    6.1527    0.0000 O   0  0  0  0  0  0  0  0  0  0  0  0
    0.5226    6.8443    0.0000 C   0  0  0  0  0  0  0  0  0  0  0  0
    3.6677    5.3371    0.0000 O   0  0  0  0  0  0  0  0  0  0  0  0
    4.9361    4.5242    0.0000 C   0  0  0  0  0  0  0  0  0  0  0  0
    2.7122    2.2521    0.0000 O   0  0  0  0  0  0  0  0  0  0  0  0
    5.9735    3.9210    0.0000 C   0  0  0  0  0  0  0  0  0  0  0  0
    4.8680    5.7223    0.0000 C   0  0  0  0  0  0  0  0  0  0  0  0
    5.9405    0.2286    0.0000 C   0  0  0  0  0  0  0  0  0  0  0  0
    6.4063   -1.1981    0.0000 C   0  0  0  0  0  0  0  0  0  0  0  0
    6.7424    1.1213    0.0000 O   0  0  0  0  0  0  0  0  0  0  0  0
    7.8745   -1.5090    0.0000 C   0  0  0  0  0  0  0  0  0  0  0  0
    8.3403   -2.9357    0.0000 C   0  0  0  0  0  0  0  0  0  0  0  0
    9.8259   -2.7280    0.0000 C   0  0  0  0  0  0  0  0  0  0  0  0
   10.7487   -3.9106    0.0000 C   0  0  0  0  0  0  0  0  0  0  0  0
   10.1859   -5.3010    0.0000 C   0  0  0  0  0  0  0  0  0  0  0  0
    8.7004   -5.5088    0.0000 C   0  0  0  0  0  0  0  0  0  0  0  0
    7.7776   -4.3262    0.0000 C   0  0  0  0  0  0  0  0  0  0  0  0
    3.6454    1.0767    0.0000 C   0  0  0  0  0  0  0  0  0  0  0  0
    3.0949   -0.3195    0.0000 C   0  0  0  0  0  0  0  0  0  0  0  0
    4.8323    1.2534    0.0000 O   0  0  0  0  0  0  0  0  0  0  0  0
    3.5699   -1.7432    0.0000 C   0  0  0  0  0  0  0  0  0  0  0  0
    5.0401   -2.0447    0.0000 C   0  0  0  0  0  0  0  0  0  0  0  0
    5.7036   -1.2966    0.0000 O   0  0  0  0  0  0  0  0  0  0  0  0
    5.5150   -3.4684    0.0000 O   0  0  0  0  0  0  0  0  0  0  0  0
    6.9852   -3.7699    0.0000 C   0  0  0  0  0  0  0  0  0  0  0  0
    7.3649   -4.9083    0.0000 C   0  0  0  0  0  0  0  0  0  0  0  0
  1  2  1  0
  1  4  1  0
  2  3  1  0
  3  6  1  0
  5  4  1  0
  5  6  1  0
  5 10  1  0
  6  7  1  0
  7  8  1  0
  8  9  1  0
  9 10  1  0
  4 11  1  1
 11 12  1  0
 12 13  1  0
 12 14  2  0
 10 15  1  6
 15 16  1  0
 16 17  1  0
 16 18  2  0
 17 19  2  0
 19 20  1  0
 20 21  2  0
 21 22  1  0
 22 23  2  0
 23 17  1  0
  5 24  1  1
  9 25  1  6
  3 26  1  0
  3 27  1  1
  6 28  1  6
  8 29  1  6
 28 29  1  0
  7 30  1  1
 29 31  1  0
 29 32  1  0
 25 33  1  0
 33 34  1  0
 33 35  2  0
 34 36  2  0
 36 37  1  0
 37 38  2  0
 38 39  1  0
 39 40  2  0
 40 41  1  0
 41 42  2  0
 42 37  1  0
 30 43  1  0
 43 44  1  0
 43 45  2  0
 44 46  1  0
 46 47  1  0
 47 48  2  0
 47 49  1  0
 49 50  1  0
 50 51  1  0
M  END
>  <Curated_InChIs>  (142) 
InChI=1S/C39H46O12/c1-7-46-28(41)20-21-30(43)49-33-31-32(48-29(42)19-18-25-14-10-8-11-15-25)34(50-35(44)26-16-12-9-13-17-26)38(6)27(47-24(2)40)22-23-37(5,45)39(33,38)51-36(31,3)4/h8-19,27,31-34,45H,7,20-23H2,1-6H3

>  <threshold>  (142) 
5

>  <pchembl>  (142) 
6.58

>  <Classification>  (142) 
1

>  <source>  (142) 
chembl_28

>  <SMILES>  (142) 
CCOC(=O)CCC(=O)O[C@@H]1[C@H]2[C@H](OC(=O)/C=C/c3ccccc3)[C@H](OC(=O)c3ccccc3)[C@]3(C)[C@@H](OC(C)=O)CC[C@](C)(O)[C@@]13OC2(C)C

>  <InChIKey>  (142) 
IIHUILQRZKSFEP-KTOAIMNJSA-N

$$$$

     RDKit          2D

 43 47  0  0  0  0  0  0  0  0999 V2000
   14.0288   -7.7271    0.0000 C   0  0  0  0  0  0  0  0  0  0  0  0
   14.0288   -8.5566    0.0000 C   0  0  0  0  0  0  0  0  0  0  0  0
   14.7433   -8.9691    0.0000 C   0  0  0  0  0  0  0  0  0  0  0  0
   14.7433   -7.3100    0.0000 C   0  0  0  0  0  0  0  0  0  0  0  0
   15.4623   -7.7271    0.0000 C   0  0  0  0  0  0  0  0  0  0  0  0
   15.4633   -8.5566    0.0000 C   0  0  0  0  0  0  0  0  0  0  0  0
   16.1782   -8.9681    0.0000 C   0  0  0  0  0  0  0  0  0  0  0  0
   16.8967   -8.5548    0.0000 C   0  0  0  0  0  0  0  0  0  0  0  0
   16.8957   -7.7252    0.0000 C   0  0  0  0  0  0  0  0  0  0  0  0
   16.1761   -7.3091    0.0000 C   0  0  0  0  0  0  0  0  0  0  0  0
   14.7420   -6.4850    0.0000 O   0  0  0  0  0  0  0  0  0  0  0  0
   14.0271   -6.0735    0.0000 C   0  0  0  0  0  0  0  0  0  0  0  0
   14.0260   -5.2486    0.0000 O   0  0  0  0  0  0  0  0  0  0  0  0
   13.3133   -7.3164    0.0000 O   0  0  0  0  0  0  0  0  0  0  0  0
   14.7346   -8.1442    0.0000 C   0  0  0  0  0  0  0  0  0  0  0  0
   15.4541   -9.3770    0.0000 O   0  0  0  0  0  0  0  0  0  0  0  0
   16.8887   -9.3770    0.0000 C   0  0  0  0  0  0  0  0  0  0  0  0
   17.0994  -10.1698    0.0000 C   0  0  0  0  0  0  0  0  0  0  0  0
   17.6815   -9.1616    0.0000 C   0  0  0  0  0  0  0  0  0  0  0  0
   15.4541   -6.9021    0.0000 C   0  0  0  0  0  0  0  0  0  0  0  0
   16.1739   -6.4841    0.0000 O   0  0  0  0  0  0  0  0  0  0  0  0
   16.8873   -6.0698    0.0000 C   0  0  0  0  0  0  0  0  0  0  0  0
   16.8851   -5.2448    0.0000 O   0  0  0  0  0  0  0  0  0  0  0  0
   17.6028   -6.4812    0.0000 C   0  0  0  0  0  0  0  0  0  0  0  0
   17.6912   -7.3013    0.0000 C   0  0  0  0  0  0  0  0  0  0  0  0
   18.4986   -7.4707    0.0000 C   0  0  0  0  0  0  0  0  0  0  0  0
   18.9092   -6.7551    0.0000 C   0  0  0  0  0  0  0  0  0  0  0  0
   18.3555   -6.1436    0.0000 O   0  0  0  0  0  0  0  0  0  0  0  0
   16.1781   -9.7931    0.0000 O   0  0  0  0  0  0  0  0  0  0  0  0
   15.4637  -10.2056    0.0000 C   0  0  0  0  0  0  0  0  0  0  0  0
   15.4636  -11.0305    0.0000 C   0  0  0  0  0  0  0  0  0  0  0  0
   14.0242   -9.3770    0.0000 O   0  0  0  0  0  0  0  0  0  0  0  0
   14.7493   -9.7930    0.0000 O   0  0  0  0  0  0  0  0  0  0  0  0
   14.7948  -11.5207    0.0000 C   0  0  0  0  0  0  0  0  0  0  0  0
   15.0497  -12.3053    0.0000 C   0  0  0  0  0  0  0  0  0  0  0  0
   15.8748  -12.3053    0.0000 C   0  0  0  0  0  0  0  0  0  0  0  0
   16.1296  -11.5209    0.0000 O   0  0  0  0  0  0  0  0  0  0  0  0
   13.3115   -6.4914    0.0000 C   0  0  0  0  0  0  0  0  0  0  0  0
   12.5999   -7.7305    0.0000 C   0  0  0  0  0  0  0  0  0  0  0  0
   11.8845   -7.3198    0.0000 C   0  0  0  0  0  0  0  0  0  0  0  0
   11.1711   -7.7339    0.0000 C   0  0  0  0  0  0  0  0  0  0  0  0
   10.4557   -7.3232    0.0000 C   0  0  0  0  0  0  0  0  0  0  0  0
    9.7423   -7.7373    0.0000 C   0  0  0  0  0  0  0  0  0  0  0  0
  8  9  1  1
  5 20  1  6
  9 10  1  0
 10 21  1  1
  5  6  1  0
 21 22  1  0
  4 11  1  6
 22 23  2  0
 24 25  2  0
 11 12  1  0
  1  2  1  0
 12 13  2  0
 12 38  1  0
 25 26  1  0
 26 27  2  0
 27 28  1  0
 28 24  1  0
 22 24  1  0
  1  4  1  0
  7 29  1  1
  1 14  1  6
 29 30  1  0
  2  3  1  0
 30 31  1  0
  3 15  1  1
  3 32  1  0
  3  6  1  0
 30 33  2  0
 31 34  2  0
  6 16  1  1
  5  4  1  0
  8 17  1  0
 16 17  1  0
 34 35  1  0
 35 36  2  0
 36 37  1  0
 37 31  1  0
  5 10  1  0
 17 18  1  0
 14 39  1  0
  6  7  1  0
 39 40  1  0
 17 19  1  0
 40 41  1  0
  7  8  1  0
 41 42  1  0
 42 43  1  0
M  END
>  <Curated_InChIs>  (143) 
InChI=1S/C32H42O11/c1-7-8-9-14-39-23-18-30(5,36)32-25(42-28(35)22-13-11-16-38-22)20(29(3,4)43-32)17-24(31(32,6)26(23)40-19(2)33)41-27(34)21-12-10-15-37-21/h10-13,15-16,20,23-26,36H,7-9,14,17-18H2,1-6H3

>  <threshold>  (143) 
5

>  <pchembl>  (143) 
6.24

>  <Classification>  (143) 
1

>  <source>  (143) 
chembl_28

>  <SMILES>  (143) 
CCCCCO[C@H]1C[C@@](C)(O)[C@]23OC(C)(C)[C@H](C[C@H](OC(=O)c4ccco4)[C@]2(C)[C@H]1OC(C)=O)[C@H]3OC(=O)c1ccco1

>  <InChIKey>  (143) 
ISJKTKUYWUHOHW-MWHDTRAWSA-N

$$$$

     RDKit          2D

 41 45  0  0  0  0  0  0  0  0999 V2000
    6.0351   -1.0669    0.0000 C   0  0  0  0  0  0  0  0  0  0  0  0
    6.0577   -1.8946    0.0000 C   0  0  0  0  0  0  0  0  0  0  0  0
    6.7846   -2.2848    0.0000 C   0  0  0  0  0  0  0  0  0  0  0  0
    6.7396   -0.6378    0.0000 C   0  0  0  0  0  0  0  0  0  0  0  0
    7.4623   -1.0280    0.0000 C   0  0  0  0  0  0  0  0  0  0  0  0
    7.4849   -1.8557    0.0000 C   0  0  0  0  0  0  0  0  0  0  0  0
    8.2118   -2.2459    0.0000 C   0  0  0  0  0  0  0  0  0  0  0  0
    8.9120   -1.8167    0.0000 C   0  0  0  0  0  0  0  0  0  0  0  0
    8.8894   -0.9891    0.0000 C   0  0  0  0  0  0  0  0  0  0  0  0
    8.1668   -0.5989    0.0000 C   0  0  0  0  0  0  0  0  0  0  0  0
    6.7172    0.1857    0.0000 O   0  0  0  0  0  0  0  0  0  0  0  0
    7.4989   -2.6513    0.0000 O   0  0  0  0  0  0  0  0  0  0  0  0
    8.9272   -2.5995    0.0000 C   0  0  0  0  0  0  0  0  0  0  0  0
    8.1461    0.1994    0.0000 O   0  0  0  0  0  0  0  0  0  0  0  0
    8.8266    0.6208    0.0000 C   0  0  0  0  0  0  0  0  0  0  0  0
    8.8058    1.4191    0.0000 O   0  0  0  0  0  0  0  0  0  0  0  0
    9.5279    0.2352    0.0000 C   0  0  0  0  0  0  0  0  0  0  0  0
    9.6419   -2.1772    0.0000 C   0  0  0  0  0  0  0  0  0  0  0  0
    9.3351   -3.3162    0.0000 C   0  0  0  0  0  0  0  0  0  0  0  0
    7.4563   -0.1934    0.0000 C   0  0  0  0  0  0  0  0  0  0  0  0
    5.9854    0.5820    0.0000 C   0  0  0  0  0  0  0  0  0  0  0  0
    5.9627    1.4140    0.0000 C   0  0  0  0  0  0  0  0  0  0  0  0
    5.2763    0.1464    0.0000 O   0  0  0  0  0  0  0  0  0  0  0  0
    6.6263    1.9224    0.0000 C   0  0  0  0  0  0  0  0  0  0  0  0
    6.3475    2.7075    0.0000 O   0  0  0  0  0  0  0  0  0  0  0  0
    5.5145    2.6834    0.0000 C   0  0  0  0  0  0  0  0  0  0  0  0
    5.2813    1.8835    0.0000 C   0  0  0  0  0  0  0  0  0  0  0  0
    5.3041   -0.6693    0.0000 O   0  0  0  0  0  0  0  0  0  0  0  0
    4.5942   -1.1036    0.0000 C   0  0  0  0  0  0  0  0  0  0  0  0
    3.8631   -0.7059    0.0000 C   0  0  0  0  0  0  0  0  0  0  0  0
    4.6153   -1.9356    0.0000 O   0  0  0  0  0  0  0  0  0  0  0  0
    5.3495   -2.3316    0.0000 O   0  0  0  0  0  0  0  0  0  0  0  0
    5.3737   -3.1634    0.0000 C   0  0  0  0  0  0  0  0  0  0  0  0
    4.6654   -3.6004    0.0000 C   0  0  0  0  0  0  0  0  0  0  0  0
    6.1062   -3.5583    0.0000 O   0  0  0  0  0  0  0  0  0  0  0  0
    9.5425   -0.5658    0.0000 C   0  0  0  0  0  0  0  0  0  0  0  0
   10.2430   -0.9513    0.0000 C   0  0  0  0  0  0  0  0  0  0  0  0
   10.9284   -0.5367    0.0000 C   0  0  0  0  0  0  0  0  0  0  0  0
   10.9090    0.2675    0.0000 C   0  0  0  0  0  0  0  0  0  0  0  0
   10.2081    0.6493    0.0000 C   0  0  0  0  0  0  0  0  0  0  0  0
    6.8083   -3.1166    0.0000 C   0  0  0  0  0  0  0  0  0  0  0  0
 13 19  1  0
  7  8  1  0
  5 20  1  6
  8  9  1  1
 11 21  1  0
  9 10  1  0
 21 22  1  0
  4 11  1  6
 21 23  2  0
 24 25  1  0
  6 12  1  1
  1  2  1  0
 12 13  1  0
 22 24  2  0
 25 26  1  0
 26 27  2  0
 27 22  1  0
  8 13  1  0
  1 28  1  1
  1  4  1  0
 28 29  1  0
 10 14  1  1
 29 30  1  0
  2  3  1  0
 29 31  2  0
 14 15  1  0
  2 32  1  1
  3  6  1  0
 32 33  1  0
 15 16  2  0
 33 34  1  0
  5  4  1  0
 33 35  2  0
 15 17  1  0
 17 36  2  0
  5  6  1  0
 36 37  1  0
 37 38  2  0
  5 10  1  0
 38 39  1  0
 13 18  1  0
 39 40  2  0
 40 17  1  0
  6  7  1  0
  3 41  1  6
M  END
>  <Curated_InChIs>  (144) 
InChI=1S/C31H36O10/c1-17-24(37-18(2)32)25(38-19(3)33)26(40-28(35)21-12-13-36-16-21)30(6)23(39-27(34)20-10-8-7-9-11-20)14-22-15-31(17,30)41-29(22,4)5/h7-13,16-17,22-26H,14-15H2,1-6H3

>  <threshold>  (144) 
5

>  <pchembl>  (144) 
6.19

>  <Classification>  (144) 
1

>  <source>  (144) 
chembl_28

>  <SMILES>  (144) 
CC(=O)O[C@H]1[C@@H](OC(C)=O)[C@H](OC(=O)c2ccoc2)[C@@]2(C)[C@@H](OC(=O)c3ccccc3)C[C@@H]3C[C@]2(OC3(C)C)[C@@H]1C

>  <InChIKey>  (144) 
IXQAMDNZYHTXQB-PEXYCDPUSA-N

$$$$

     RDKit          2D

 50 52  0  0  0  0  0  0  0  0999 V2000
   19.1710  -21.2552    0.0000 C   0  0  0  0  0  0  0  0  0  0  0  0
   18.7665  -21.9651    0.0000 C   0  0  0  0  0  0  0  0  0  0  0  0
   19.5835  -21.9604    0.0000 C   0  0  0  0  0  0  0  0  0  0  0  0
   16.7930  -22.7856    0.0000 C   0  0  0  0  0  0  0  0  0  0  0  0
   17.3682  -21.3867    0.0000 C   0  0  0  0  0  0  0  0  0  0  0  0
   17.3683  -23.3608    0.0000 C   0  0  0  0  0  0  0  0  0  0  0  0
   18.1879  -23.3608    0.0000 C   0  0  0  0  0  0  0  0  0  0  0  0
   18.7672  -22.7856    0.0000 C   0  0  0  0  0  0  0  0  0  0  0  0
   18.1879  -21.3866    0.0000 C   0  0  0  0  0  0  0  0  0  0  0  0
   14.1275  -21.7959    0.0000 C   0  0  0  0  0  0  0  0  0  0  0  0
   14.6144  -21.1372    0.0000 C   0  0  0  0  0  0  0  0  0  0  0  0
   14.6076  -22.4667    0.0000 C   0  0  0  0  0  0  0  0  0  0  0  0
   14.2034  -23.1774    0.0000 O   0  0  0  0  0  0  0  0  0  0  0  0
   14.9764  -20.6825    0.0000 O   0  0  0  0  0  0  0  0  0  0  0  0
   15.3939  -22.2119    0.0000 C   0  0  0  0  0  0  0  0  0  0  0  0
   15.3940  -21.3923    0.0000 C   0  0  0  0  0  0  0  0  0  0  0  0
   15.9706  -20.8157    0.0000 C   0  0  0  0  0  0  0  0  0  0  0  0
   15.9707  -22.7886    0.0000 C   0  0  0  0  0  0  0  0  0  0  0  0
   17.3669  -22.2119    0.0000 C   0  0  0  0  0  0  0  0  0  0  0  0
   16.7902  -20.8155    0.0000 C   0  0  0  0  0  0  0  0  0  0  0  0
   15.6578  -20.0607    0.0000 O   0  0  0  0  0  0  0  0  0  0  0  0
   17.1029  -20.0605    0.0000 C   0  0  0  0  0  0  0  0  0  0  0  0
   19.5217  -23.0994    0.0000 O   0  0  0  0  0  0  0  0  0  0  0  0
   17.0556  -24.1158    0.0000 O   0  0  0  0  0  0  0  0  0  0  0  0
   17.4674  -24.8218    0.0000 C   0  0  0  0  0  0  0  0  0  0  0  0
   17.0622  -25.5314    0.0000 C   0  0  0  0  0  0  0  0  0  0  0  0
   18.2846  -24.8180    0.0000 O   0  0  0  0  0  0  0  0  0  0  0  0
   18.6067  -24.0620    0.0000 O   0  0  0  0  0  0  0  0  0  0  0  0
   13.3862  -23.1830    0.0000 C   0  0  0  0  0  0  0  0  0  0  0  0
   12.9824  -23.8934    0.0000 C   0  0  0  0  0  0  0  0  0  0  0  0
   12.9728  -22.4781    0.0000 O   0  0  0  0  0  0  0  0  0  0  0  0
   15.6594  -23.5442    0.0000 O   0  0  0  0  0  0  0  0  0  0  0  0
   15.6546  -24.3589    0.0000 C   0  0  0  0  0  0  0  0  0  0  0  0
   16.3599  -24.7717    0.0000 O   0  0  0  0  0  0  0  0  0  0  0  0
   14.9445  -24.7633    0.0000 C   0  0  0  0  0  0  0  0  0  0  0  0
   12.1651  -23.8939    0.0000 C   0  0  0  0  0  0  0  0  0  0  0  0
   11.7614  -24.6036    0.0000 C   0  0  0  0  0  0  0  0  0  0  0  0
   12.1748  -25.3095    0.0000 C   0  0  0  0  0  0  0  0  0  0  0  0
   12.9962  -25.3013    0.0000 C   0  0  0  0  0  0  0  0  0  0  0  0
   13.3962  -24.5911    0.0000 C   0  0  0  0  0  0  0  0  0  0  0  0
   13.5456  -21.2140    0.0000 C   0  0  0  0  0  0  0  0  0  0  0  0
   13.4176  -22.2004    0.0000 O   0  0  0  0  0  0  0  0  0  0  0  0
   19.4238  -24.0499    0.0000 C   0  0  0  0  0  0  0  0  0  0  0  0
   19.8429  -24.7514    0.0000 C   0  0  0  0  0  0  0  0  0  0  0  0
   19.8219  -23.3362    0.0000 O   0  0  0  0  0  0  0  0  0  0  0  0
   19.4448  -25.4651    0.0000 C   0  0  0  0  0  0  0  0  0  0  0  0
   20.6600  -24.7393    0.0000 C   0  0  0  0  0  0  0  0  0  0  0  0
   12.7077  -21.7918    0.0000 C   0  0  0  0  0  0  0  0  0  0  0  0
   12.7067  -20.9746    0.0000 O   0  0  0  0  0  0  0  0  0  0  0  0
   12.0006  -22.2013    0.0000 C   0  0  0  0  0  0  0  0  0  0  0  0
  2  1  1  0
  3  2  1  0
  4  6  1  0
  6  7  1  0
  7  8  1  0
  8  2  1  0
  2  9  1  0
  9  5  2  0
 16 11  1  0
 11 10  1  0
 10 12  1  0
 12 15  1  0
 12 13  1  1
 16 14  1  1
 15 16  1  0
 16 17  1  0
 15 18  1  1
 18  4  1  0
  4 19  2  0
  5 20  1  0
 20 17  1  0
 17 21  2  0
 20 22  1  1
  8 23  2  0
  6 24  1  1
 24 25  1  0
 25 26  1  0
 25 27  2  0
  7 28  1  6
 13 29  1  0
 29 30  1  0
 29 31  2  0
 18 32  1  6
 32 33  1  0
 33 34  2  0
 33 35  1  0
 30 36  2  0
 36 37  1  0
 37 38  2  0
 38 39  1  0
 39 40  2  0
 40 30  1  0
 10 41  1  1
 10 42  1  0
 28 43  1  0
 43 44  1  0
 43 45  2  0
 44 46  1  0
 44 47  1  0
 42 48  1  0
 48 49  2  0
 48 50  1  0
M  END
>  <Curated_InChIs>  (145) 
InChI=1S/C37H46O13/c1-19(2)33(43)48-29-28(47-23(6)39)21(4)27(46-22(5)38)26-32(49-34(44)25-14-12-11-13-15-25)36(10,50-24(7)40)18-37(26,45)30(41)20(3)16-17-35(8,9)31(29)42/h11-17,19-20,26-29,32,45H,4,18H2,1-3,5-10H3

>  <threshold>  (145) 
5

>  <pchembl>  (145) 
5.28

>  <Classification>  (145) 
1

>  <source>  (145) 
chembl_28

>  <SMILES>  (145) 
C=C1[C@H](OC(C)=O)[C@@H](OC(=O)C(C)C)C(=O)C(C)(C)/C=C/[C@H](C)C(=O)[C@@]2(O)C[C@@](C)(OC(C)=O)[C@H](OC(=O)c3ccccc3)[C@@H]2[C@H]1OC(C)=O

>  <InChIKey>  (145) 
JAPFTMCTKJJPFR-SQYKWSPOSA-N

$$$$

     RDKit          2D

 28 29  0  0  0  0  0  0  0  0999 V2000
   29.1905   -2.2576    0.0000 C   0  0  0  0  0  0  0  0  0  0  0  0
   29.1893   -3.0771    0.0000 C   0  0  0  0  0  0  0  0  0  0  0  0
   29.8974   -3.4861    0.0000 C   0  0  0  0  0  0  0  0  0  0  0  0
   30.6070   -3.0766    0.0000 C   0  0  0  0  0  0  0  0  0  0  0  0
   30.6042   -2.2540    0.0000 C   0  0  0  0  0  0  0  0  0  0  0  0
   29.8956   -1.8487    0.0000 C   0  0  0  0  0  0  0  0  0  0  0  0
   31.3104   -1.8427    0.0000 C   0  0  0  0  0  0  0  0  0  0  0  0
   32.0196   -2.2486    0.0000 C   0  0  0  0  0  0  0  0  0  0  0  0
   32.7258   -1.8374    0.0000 C   0  0  0  0  0  0  0  0  0  0  0  0
   33.4350   -2.2433    0.0000 C   0  0  0  0  0  0  0  0  0  0  0  0
   33.4350   -3.0594    0.0000 C   0  0  0  0  0  0  0  0  0  0  0  0
   34.1434   -3.4652    0.0000 C   0  0  0  0  0  0  0  0  0  0  0  0
   34.8506   -3.0539    0.0000 C   0  0  0  0  0  0  0  0  0  0  0  0
   34.8448   -2.2325    0.0000 C   0  0  0  0  0  0  0  0  0  0  0  0
   34.1359   -1.8303    0.0000 C   0  0  0  0  0  0  0  0  0  0  0  0
   31.3154   -3.4841    0.0000 O   0  0  0  0  0  0  0  0  0  0  0  0
   28.4813   -3.4851    0.0000 O   0  0  0  0  0  0  0  0  0  0  0  0
   28.4827   -1.8491    0.0000 C   0  0  0  0  0  0  0  0  0  0  0  0
   29.8931   -1.0315    0.0000 O   0  0  0  0  0  0  0  0  0  0  0  0
   31.3167   -4.3013    0.0000 C   0  0  0  0  0  0  0  0  0  0  0  0
   31.3073   -1.0255    0.0000 O   0  0  0  0  0  0  0  0  0  0  0  0
   28.4806   -4.3023    0.0000 C   0  0  0  0  0  0  0  0  0  0  0  0
   27.7751   -2.2579    0.0000 C   0  0  0  0  0  0  0  0  0  0  0  0
   27.0672   -1.8495    0.0000 C   0  0  0  0  0  0  0  0  0  0  0  0
   26.3596   -2.2582    0.0000 C   0  0  0  0  0  0  0  0  0  0  0  0
   27.0671   -1.0323    0.0000 C   0  0  0  0  0  0  0  0  0  0  0  0
   34.1461   -4.2824    0.0000 O   0  0  0  0  0  0  0  0  0  0  0  0
   34.8551   -4.6887    0.0000 C   0  0  0  0  0  0  0  0  0  0  0  0
  1  2  2  0
  2  3  1  0
  3  4  2  0
  4  5  1  0
  5  6  2  0
  6  1  1  0
  5  7  1  0
  7  8  1  0
  8  9  2  0
  9 10  1  0
 10 11  2  0
 11 12  1  0
 12 13  2  0
 13 14  1  0
 14 15  2  0
 15 10  1  0
  4 16  1  0
  2 17  1  0
  1 18  1  0
  6 19  1  0
 16 20  1  0
  7 21  2  0
 17 22  1  0
 18 23  1  0
 23 24  2  3
 24 25  1  0
 24 26  1  0
 12 27  1  0
 27 28  1  0
M  END
>  <Curated_InChIs>  (146) 
InChI=1S/C23H26O5/c1-15(2)9-11-18-20(27-4)14-21(28-5)22(23(18)25)19(24)12-10-16-7-6-8-17(13-16)26-3/h6-10,12-14,25H,11H2,1-5H3

>  <threshold>  (146) 
5

>  <pchembl>  (146) 
5.11

>  <Classification>  (146) 
1

>  <source>  (146) 
chembl_28

>  <SMILES>  (146) 
COc1cccc(/C=C/C(=O)c2c(OC)cc(OC)c(CC=C(C)C)c2O)c1

>  <InChIKey>  (146) 
JECFQUSECBXFGR-ZRDIBKRKSA-N

$$$$

     RDKit          2D

 26 28  0  0  0  0  0  0  0  0999 V2000
    9.8888  -17.1287    0.0000 C   0  0  0  0  0  0  0  0  0  0  0  0
   10.6426  -17.4619    0.0000 C   0  0  0  0  0  0  0  0  0  0  0  0
   10.5579  -18.2835    0.0000 C   0  0  0  0  0  0  0  0  0  0  0  0
    9.7483  -18.4515    0.0000 C   0  0  0  0  0  0  0  0  0  0  0  0
    9.3361  -19.1668    0.0000 C   0  0  0  0  0  0  0  0  0  0  0  0
    8.5119  -19.1668    0.0000 C   0  0  0  0  0  0  0  0  0  0  0  0
    8.0997  -18.4515    0.0000 C   0  0  0  0  0  0  0  0  0  0  0  0
    8.5119  -17.7405    0.0000 C   0  0  0  0  0  0  0  0  0  0  0  0
    9.3361  -17.7405    0.0000 C   0  0  0  0  0  0  0  0  0  0  0  0
    9.7165  -16.3192    0.0000 O   0  0  0  0  0  0  0  0  0  0  0  0
    7.2754  -18.4515    0.0000 O   0  0  0  0  0  0  0  0  0  0  0  0
    6.8632  -19.1668    0.0000 C   0  0  0  0  0  0  0  0  0  0  0  0
    8.0997  -19.8821    0.0000 O   0  0  0  0  0  0  0  0  0  0  0  0
    7.2754  -19.8821    0.0000 C   0  0  0  0  0  0  0  0  0  0  0  0
   11.3537  -17.0497    0.0000 C   0  0  0  0  0  0  0  0  0  0  0  0
   12.0689  -17.4619    0.0000 C   0  0  0  0  0  0  0  0  0  0  0  0
   12.7842  -17.0497    0.0000 C   0  0  0  0  0  0  0  0  0  0  0  0
   13.4954  -17.4619    0.0000 C   0  0  0  0  0  0  0  0  0  0  0  0
   14.2107  -17.0497    0.0000 C   0  0  0  0  0  0  0  0  0  0  0  0
   14.9260  -17.4619    0.0000 C   0  0  0  0  0  0  0  0  0  0  0  0
   14.9260  -18.2862    0.0000 C   0  0  0  0  0  0  0  0  0  0  0  0
   14.2107  -18.6984    0.0000 C   0  0  0  0  0  0  0  0  0  0  0  0
   13.4954  -18.2862    0.0000 C   0  0  0  0  0  0  0  0  0  0  0  0
   15.6412  -18.6984    0.0000 N   0  0  0  0  0  0  0  0  0  0  0  0
   16.3523  -18.2862    0.0000 C   0  0  0  0  0  0  0  0  0  0  0  0
   15.6412  -19.5227    0.0000 C   0  0  0  0  0  0  0  0  0  0  0  0
  1  2  1  0
  2  3  1  0
  3  4  1  0
  4  5  2  0
  5  6  1  0
  6  7  2  0
  7  8  1  0
  8  9  2  0
  1  9  1  0
  4  9  1  0
  1 10  2  0
 11 12  1  0
  7 11  1  0
 13 14  1  0
  6 13  1  0
 15 16  1  0
 16 17  2  0
 18 19  2  0
 19 20  1  0
 20 21  2  0
 21 22  1  0
 22 23  2  0
 18 23  1  0
 24 25  1  0
 24 26  1  0
 21 24  1  0
 17 18  1  0
  2 15  2  0
M  END
>  <Curated_InChIs>  (147) 
InChI=1S/C22H23NO3/c1-23(2)18-10-8-15(9-11-18)6-5-7-16-12-17-13-20(25-3)21(26-4)14-19(17)22(16)24/h5-11,13-14H,12H2,1-4H3

>  <threshold>  (147) 
5

>  <pchembl>  (147) 
7.4, 7.37

>  <Classification>  (147) 
1

>  <source>  (147) 
chembl_28

>  <SMILES>  (147) 
COc1cc2c(cc1OC)C(=O)/C(=C/C=C/c1ccc(N(C)C)cc1)C2

>  <InChIKey>  (147) 
JFBGCZWCKLYHEB-OWRQJNCQSA-N

$$$$

     RDKit          2D

 29 33  0  0  0  0  0  0  0  0999 V2000
   12.9044  -19.9303    0.0000 C   0  0  0  0  0  0  0  0  0  0  0  0
   12.9033  -20.7499    0.0000 C   0  0  0  0  0  0  0  0  0  0  0  0
   13.6113  -21.1589    0.0000 C   0  0  0  0  0  0  0  0  0  0  0  0
   13.6095  -19.5215    0.0000 C   0  0  0  0  0  0  0  0  0  0  0  0
   14.3182  -19.9267    0.0000 C   0  0  0  0  0  0  0  0  0  0  0  0
   14.3184  -20.7499    0.0000 C   0  0  0  0  0  0  0  0  0  0  0  0
   15.1014  -21.0041    0.0000 N   0  0  0  0  0  0  0  0  0  0  0  0
   15.1010  -19.6722    0.0000 C   0  0  0  0  0  0  0  0  0  0  0  0
   15.5852  -20.3393    0.0000 C   0  0  0  0  0  0  0  0  0  0  0  0
   16.4005  -20.2540    0.0000 C   0  0  0  0  0  0  0  0  0  0  0  0
   16.7379  -19.5026    0.0000 N   0  0  0  0  0  0  0  0  0  0  0  0
   16.2537  -18.8355    0.0000 C   0  0  0  0  0  0  0  0  0  0  0  0
   15.4321  -18.9198    0.0000 C   0  0  0  0  0  0  0  0  0  0  0  0
   17.5508  -19.4187    0.0000 C   0  0  0  0  0  0  0  0  0  0  0  0
   18.0299  -20.0808    0.0000 O   0  0  0  0  0  0  0  0  0  0  0  0
   17.8846  -18.6728    0.0000 C   0  0  0  0  0  0  0  0  0  0  0  0
   18.6977  -18.5930    0.0000 C   0  0  0  0  0  0  0  0  0  0  0  0
   19.0315  -17.8479    0.0000 C   0  0  0  0  0  0  0  0  0  0  0  0
   18.5522  -17.1849    0.0000 C   0  0  0  0  0  0  0  0  0  0  0  0
   17.7354  -17.2719    0.0000 C   0  0  0  0  0  0  0  0  0  0  0  0
   17.4054  -18.0171    0.0000 C   0  0  0  0  0  0  0  0  0  0  0  0
   16.8804  -20.9127    0.0000 C   0  0  0  0  0  0  0  0  0  0  0  0
   16.5449  -21.6591    0.0000 C   0  0  0  0  0  0  0  0  0  0  0  0
   17.0233  -22.3207    0.0000 C   0  0  0  0  0  0  0  0  0  0  0  0
   17.8371  -22.2371    0.0000 C   0  0  0  0  0  0  0  0  0  0  0  0
   18.1702  -21.4863    0.0000 C   0  0  0  0  0  0  0  0  0  0  0  0
   17.6898  -20.8278    0.0000 C   0  0  0  0  0  0  0  0  0  0  0  0
   18.9805  -21.3954    0.0000 C   0  0  0  0  0  0  0  0  0  0  0  0
   19.7931  -21.3086    0.0000 N   0  0  0  0  0  0  0  0  0  0  0  0
  1  2  2  0
  2  3  1  0
  3  6  2  0
  5  4  2  0
  4  1  1  0
  5  6  1  0
  6  7  1  0
  7  9  1  0
  8  5  1  0
  8  9  2  0
  8 13  1  0
  9 10  1  0
 10 11  1  0
 11 12  1  0
 12 13  1  0
 11 14  1  0
 14 15  2  0
 14 16  1  0
 16 17  2  0
 17 18  1  0
 18 19  2  0
 19 20  1  0
 20 21  2  0
 21 16  1  0
 22 23  2  0
 23 24  1  0
 24 25  2  0
 25 26  1  0
 26 27  2  0
 27 22  1  0
 10 22  1  0
 28 29  3  0
 26 28  1  0
M  END
>  <Curated_InChIs>  (148) 
InChI=1S/C25H19N3O/c26-16-17-7-6-10-19(15-17)24-23-21(20-11-4-5-12-22(20)27-23)13-14-28(24)25(29)18-8-2-1-3-9-18/h1-12,15,24,27H,13-14H2

>  <threshold>  (148) 
5

>  <pchembl>  (148) 
5.18

>  <Classification>  (148) 
1

>  <source>  (148) 
chembl_28

>  <SMILES>  (148) 
N#Cc1cccc(C2c3[nH]c4ccccc4c3CCN2C(=O)c2ccccc2)c1

>  <InChIKey>  (148) 
JFYIGAAQIDTDQO-UHFFFAOYSA-N

$$$$

     RDKit          2D

 59 59  0  0  0  0  0  0  0  0999 V2000
    1.5167   -1.4292    0.0000 N   0  0  0  0  0  0  0  0  0  0  0  0
    3.3042   -3.4917    0.0000 N   0  0  0  0  0  0  0  0  0  0  0  0
    4.3417   -0.2042    0.0000 N   0  0  0  0  0  0  0  0  0  0  0  0
    3.7625   -0.0417    0.0000 C   0  0  0  0  0  0  0  0  0  0  0  0
    3.9000   -3.4917    0.0000 C   0  0  0  0  0  0  0  0  0  0  0  0
    1.6750   -0.2292    0.0000 C   0  0  0  0  0  0  0  0  0  0  0  0
    1.3000   -0.7542    0.0000 C   0  0  0  0  0  0  0  0  0  0  0  0
    1.2167   -1.9417    0.0000 C   0  0  0  0  0  0  0  0  0  0  0  0
    2.4125   -2.9792    0.0000 C   0  0  0  0  0  0  0  0  0  0  0  0
    2.5500   -0.1417    0.0000 O   0  0  0  0  0  0  0  0  0  0  0  0
    2.1125   -2.4667    0.0000 N   0  0  0  0  0  0  0  0  0  0  0  0
    3.2500    0.2583    0.0000 C   0  0  0  0  0  0  0  0  0  0  0  0
    1.5167   -2.4667    0.0000 C   0  0  0  0  0  0  0  0  0  0  0  0
    3.0042   -2.9792    0.0000 C   0  0  0  0  0  0  0  0  0  0  0  0
    4.2000   -4.0167    0.0000 C   0  0  0  0  0  0  0  0  0  0  0  0
    4.5000   -0.7792    0.0000 C   0  0  0  0  0  0  0  0  0  0  0  0
    4.7917   -4.0167    0.0000 N   0  0  0  0  0  0  0  0  0  0  0  0
    5.0792   -0.9292    0.0000 C   0  0  0  0  0  0  0  0  0  0  0  0
    5.3042   -4.3792    0.0000 C   0  0  0  0  0  0  0  0  0  0  0  0
    0.5750   -0.6917    0.0000 C   0  0  0  0  0  0  0  0  0  0  0  0
    5.2292   -1.5167    0.0000 N   0  0  0  0  0  0  0  0  0  0  0  0
    4.2000   -2.9792    0.0000 O   0  0  0  0  0  0  0  0  0  0  0  0
    3.3417   -0.4667    0.0000 O   0  0  0  0  0  0  0  0  0  0  0  0
    1.3625    0.2708    0.0000 O   0  0  0  0  0  0  0  0  0  0  0  0
    2.1125   -3.4917    0.0000 O   0  0  0  0  0  0  0  0  0  0  0  0
    0.6250   -1.9417    0.0000 O   0  0  0  0  0  0  0  0  0  0  0  0
    1.2167   -2.9792    0.0000 C   0  0  0  0  0  0  0  0  0  0  0  0
    5.3750   -0.4292    0.0000 O   0  0  0  0  0  0  0  0  0  0  0  0
    5.3542   -4.9792    0.0000 O   0  0  0  0  0  0  0  0  0  0  0  0
    3.2417    0.8583    0.0000 C   0  0  0  0  0  0  0  0  0  0  0  0
    3.9000   -4.5167    0.0000 C   0  0  0  0  0  0  0  0  0  0  0  0
    2.1125   -1.4292    0.0000 C   0  0  0  0  0  0  0  0  0  0  0  0
    3.0042   -4.0167    0.0000 C   0  0  0  0  0  0  0  0  0  0  0  0
    4.7667    0.2208    0.0000 C   0  0  0  0  0  0  0  0  0  0  0  0
    3.3042   -2.4667    0.0000 C   0  0  0  0  0  0  0  0  0  0  0  0
    4.0750   -1.2042    0.0000 C   0  0  0  0  0  0  0  0  0  0  0  0
    0.2625   -1.2042    0.0000 O   0  0  0  0  0  0  0  0  0  0  0  0
    5.8042   -3.8792    0.0000 C   0  0  0  0  0  0  0  0  0  0  0  0
    5.8125   -1.6667    0.0000 C   0  0  0  0  0  0  0  0  0  0  0  0
    0.6250   -2.9792    0.0000 C   0  0  0  0  0  0  0  0  0  0  0  0
    0.4500   -0.3292    0.0000 C   0  0  0  0  0  0  0  0  0  0  0  0
    0.0750   -0.6292    0.0000 C   0  0  0  0  0  0  0  0  0  0  0  0
    4.2000   -5.0417    0.0000 C   0  0  0  0  0  0  0  0  0  0  0  0
    3.7625    1.1458    0.0000 C   0  0  0  0  0  0  0  0  0  0  0  0
    2.7375    1.1458    0.0000 C   0  0  0  0  0  0  0  0  0  0  0  0
    3.3042   -4.5167    0.0000 C   0  0  0  0  0  0  0  0  0  0  0  0
    4.2250   -1.7792    0.0000 C   0  0  0  0  0  0  0  0  0  0  0  0
    3.9000   -2.4667    0.0000 C   0  0  0  0  0  0  0  0  0  0  0  0
    3.0042   -1.9417    0.0000 C   0  0  0  0  0  0  0  0  0  0  0  0
    3.5000   -1.0417    0.0000 C   0  0  0  0  0  0  0  0  0  0  0  0
    0.3250   -3.4917    0.0000 C   0  0  0  0  0  0  0  0  0  0  0  0
    0.3250   -2.4667    0.0000 C   0  0  0  0  0  0  0  0  0  0  0  0
    3.9000   -5.5542    0.0000 C   0  0  0  0  0  0  0  0  0  0  0  0
    3.7625    1.7458    0.0000 C   0  0  0  0  0  0  0  0  0  0  0  0
    5.9667   -2.2417    0.0000 C   0  0  0  0  0  0  0  0  0  0  0  0
    6.3375   -3.8167    0.0000 C   0  0  0  0  0  0  0  0  0  0  0  0
    6.5500   -2.4042    0.0000 C   0  0  0  0  0  0  0  0  0  0  0  0
    6.7000   -2.9792    0.0000 C   0  0  0  0  0  0  0  0  0  0  0  0
    6.4625   -3.3042    0.0000 C   0  0  0  0  0  0  0  0  0  0  0  0
  2 14  1  0
  3  4  1  0
  4 12  1  0
  5  2  1  0
  6  7  1  0
  7  1  1  0
  8  1  1  0
  9 11  1  0
 10  6  1  0
 11 13  1  0
 12 10  1  6
 13  8  1  0
 14  9  1  0
 15  5  1  0
 16  3  1  0
 15 17  1  1
 18 16  1  0
 19 17  1  0
  7 20  1  1
 21 18  1  0
 22  5  2  0
 23  4  2  0
 24  6  2  0
 25  9  2  0
 26  8  2  0
 13 27  1  1
 28 18  2  0
 29 19  2  0
 12 30  1  0
 15 31  1  0
 32  1  1  0
 33  2  1  0
 34  3  1  0
 14 35  1  6
 16 36  1  6
 37 20  1  0
 38 19  1  0
 39 21  1  0
 40 27  1  0
 41 20  1  0
 42 20  1  0
 43 31  1  0
 44 30  1  0
 30 45  1  1
 31 46  1  6
 47 36  1  0
 48 35  1  0
 49 35  1  0
 50 36  1  0
 51 40  1  0
 52 40  1  0
 53 43  1  0
 54 44  1  0
 55 39  1  0
 56 38  1  0
 57 55  1  0
 58 57  1  0
 59 56  1  0
 59 58  1  0
M  END
>  <Curated_InChIs>  (149) 
InChI=1S/C44H80N6O9/c1-16-29(9)33-41(55)48(13)35(28(7)8)39(53)46-31(25-26(3)4)40(54)50(15)37(44(11,12)58)43(57)59-36(30(10)17-2)42(56)49(14)34(27(5)6)38(52)45-24-22-20-18-19-21-23-32(51)47-33/h26-31,33-37,58H,16-25H2,1-15H3,(H,45,52)(H,46,53)(H,47,51)

>  <threshold>  (149) 
5

>  <pchembl>  (149) 
5.13

>  <Classification>  (149) 
1

>  <source>  (149) 
chembl_28

>  <SMILES>  (149) 
CC[C@H](C)[C@@H]1NC(=O)CCCCCCCNC(=O)[C@H](C(C)C)N(C)C(=O)[C@@H]([C@@H](C)CC)OC(=O)[C@H](C(C)(C)O)N(C)C(=O)[C@H](CC(C)C)NC(=O)[C@H](C(C)C)N(C)C1=O

>  <InChIKey>  (149) 
JHZZQCVXBQGNJC-YUYCYJJGSA-N

$$$$

     RDKit          2D

 33 37  0  0  0  0  0  0  0  0999 V2000
    0.7315    0.3631    0.0000 O   0  0  0  0  0  0  0  0  0  0  0  0
   -4.3652    2.1769    0.0000 O   0  0  0  0  0  0  0  0  0  0  0  0
    1.2191   -2.1146    0.0000 N   0  0  0  0  0  0  0  0  0  0  0  0
    1.9335   -0.8771    0.0000 N   0  0  0  0  0  0  0  0  0  0  0  0
    0.4344   -2.3695    0.0000 N   0  0  0  0  0  0  0  0  0  0  0  0
   -0.6275   -0.0785    0.0000 N   0  0  0  0  0  0  0  0  0  0  0  0
   -2.7513    1.8338    0.0000 N   0  0  0  0  0  0  0  0  0  0  0  0
    1.2191   -1.2896    0.0000 C   0  0  0  0  0  0  0  0  0  0  0  0
    1.9335   -2.5271    0.0000 C   0  0  0  0  0  0  0  0  0  0  0  0
    0.4344   -1.0346    0.0000 C   0  0  0  0  0  0  0  0  0  0  0  0
    2.6480   -1.2896    0.0000 C   0  0  0  0  0  0  0  0  0  0  0  0
    2.6480   -2.1146    0.0000 C   0  0  0  0  0  0  0  0  0  0  0  0
    1.9335   -3.3521    0.0000 C   0  0  0  0  0  0  0  0  0  0  0  0
   -0.0505   -1.7021    0.0000 C   0  0  0  0  0  0  0  0  0  0  0  0
    0.1795   -0.2500    0.0000 C   0  0  0  0  0  0  0  0  0  0  0  0
    3.3625   -0.8771    0.0000 C   0  0  0  0  0  0  0  0  0  0  0  0
    2.6480   -3.7646    0.0000 C   0  0  0  0  0  0  0  0  0  0  0  0
    1.2191   -3.7646    0.0000 C   0  0  0  0  0  0  0  0  0  0  0  0
    3.3625   -0.0521    0.0000 C   0  0  0  0  0  0  0  0  0  0  0  0
    4.0769   -1.2896    0.0000 C   0  0  0  0  0  0  0  0  0  0  0  0
    2.6480   -4.5896    0.0000 C   0  0  0  0  0  0  0  0  0  0  0  0
    1.2191   -4.5896    0.0000 C   0  0  0  0  0  0  0  0  0  0  0  0
    4.0769    0.3604    0.0000 C   0  0  0  0  0  0  0  0  0  0  0  0
    4.7914   -0.8771    0.0000 C   0  0  0  0  0  0  0  0  0  0  0  0
    1.9335   -5.0021    0.0000 C   0  0  0  0  0  0  0  0  0  0  0  0
   -0.8824    0.7062    0.0000 C   0  0  0  0  0  0  0  0  0  0  0  0
    4.7914   -0.0521    0.0000 C   0  0  0  0  0  0  0  0  0  0  0  0
   -1.6894    0.8777    0.0000 C   0  0  0  0  0  0  0  0  0  0  0  0
   -1.9443    1.6623    0.0000 C   0  0  0  0  0  0  0  0  0  0  0  0
   -3.0062    2.6185    0.0000 C   0  0  0  0  0  0  0  0  0  0  0  0
   -3.3033    1.2207    0.0000 C   0  0  0  0  0  0  0  0  0  0  0  0
   -3.8132    2.7900    0.0000 C   0  0  0  0  0  0  0  0  0  0  0  0
   -4.1103    1.3923    0.0000 C   0  0  0  0  0  0  0  0  0  0  0  0
  1 15  2  0
  2 32  1  0
  2 33  1  0
  3  5  1  0
  3  8  1  0
  3  9  1  0
  4  8  1  0
  4 11  2  0
  5 14  2  0
  6 15  1  0
  6 26  1  0
  7 29  1  0
  7 30  1  0
  7 31  1  0
  8 10  2  0
  9 12  2  0
  9 13  1  0
 10 14  1  0
 10 15  1  0
 11 12  1  0
 11 16  1  0
 13 17  2  0
 13 18  1  0
 16 19  2  0
 16 20  1  0
 17 21  1  0
 18 22  2  0
 19 23  1  0
 20 24  2  0
 21 25  2  0
 22 25  1  0
 23 27  2  0
 24 27  1  0
 26 28  1  0
 28 29  1  0
 30 32  1  0
 31 33  1  0
M  END
>  <Curated_InChIs>  (150) 
InChI=1S/C26H27N5O2/c32-26(27-12-7-13-30-14-16-33-17-15-30)22-19-28-31-24(21-10-5-2-6-11-21)18-23(29-25(22)31)20-8-3-1-4-9-20/h1-6,8-11,18-19H,7,12-17H2,(H,27,32)

>  <threshold>  (150) 
5

>  <pchembl>  (150) 
5.17

>  <Classification>  (150) 
1

>  <source>  (150) 
chembl_28

>  <SMILES>  (150) 
O=C(NCCCN1CCOCC1)c1cnn2c(-c3ccccc3)cc(-c3ccccc3)nc12

>  <InChIKey>  (150) 
JTRXWCLQFAZHGP-UHFFFAOYSA-N

$$$$

     RDKit          2D

 38 42  0  0  0  0  0  0  0  0999 V2000
   -2.6444    1.1137    0.0000 C   0  0  0  0  0  0  0  0  0  0  0  0
   -2.6444    0.2841    0.0000 C   0  0  0  0  0  0  0  0  0  0  0  0
   -1.9299   -0.1284    0.0000 C   0  0  0  0  0  0  0  0  0  0  0  0
   -1.9299    1.5307    0.0000 C   0  0  0  0  0  0  0  0  0  0  0  0
   -1.2110    1.1137    0.0000 C   0  0  0  0  0  0  0  0  0  0  0  0
   -1.2099    0.2841    0.0000 C   0  0  0  0  0  0  0  0  0  0  0  0
   -0.4950   -0.1274    0.0000 C   0  0  0  0  0  0  0  0  0  0  0  0
    0.2235    0.2860    0.0000 C   0  0  0  0  0  0  0  0  0  0  0  0
    0.2224    1.1155    0.0000 C   0  0  0  0  0  0  0  0  0  0  0  0
   -0.4970    1.5316    0.0000 C   0  0  0  0  0  0  0  0  0  0  0  0
   -1.9311    2.3557    0.0000 O   0  0  0  0  0  0  0  0  0  0  0  0
   -2.6460    2.7671    0.0000 C   0  0  0  0  0  0  0  0  0  0  0  0
   -2.6472    3.5921    0.0000 O   0  0  0  0  0  0  0  0  0  0  0  0
   -3.3598    1.5244    0.0000 O   0  0  0  0  0  0  0  0  0  0  0  0
   -1.9386    0.6966    0.0000 C   0  0  0  0  0  0  0  0  0  0  0  0
   -1.2190   -0.5362    0.0000 O   0  0  0  0  0  0  0  0  0  0  0  0
    0.2154   -0.5362    0.0000 C   0  0  0  0  0  0  0  0  0  0  0  0
    0.4262   -1.3290    0.0000 C   0  0  0  0  0  0  0  0  0  0  0  0
    1.0083   -0.3208    0.0000 C   0  0  0  0  0  0  0  0  0  0  0  0
   -1.2190    1.9386    0.0000 C   0  0  0  0  0  0  0  0  0  0  0  0
   -0.4992    2.3565    0.0000 O   0  0  0  0  0  0  0  0  0  0  0  0
    0.2140    2.7709    0.0000 C   0  0  0  0  0  0  0  0  0  0  0  0
    0.2118    3.5958    0.0000 O   0  0  0  0  0  0  0  0  0  0  0  0
    0.9294    2.3595    0.0000 C   0  0  0  0  0  0  0  0  0  0  0  0
    1.0179    1.5394    0.0000 C   0  0  0  0  0  0  0  0  0  0  0  0
    1.8253    1.3700    0.0000 C   0  0  0  0  0  0  0  0  0  0  0  0
    2.2359    2.0856    0.0000 C   0  0  0  0  0  0  0  0  0  0  0  0
    1.6822    2.6971    0.0000 O   0  0  0  0  0  0  0  0  0  0  0  0
   -0.4951   -0.9523    0.0000 O   0  0  0  0  0  0  0  0  0  0  0  0
   -2.6489   -0.5362    0.0000 O   0  0  0  0  0  0  0  0  0  0  0  0
   -3.3617    2.3493    0.0000 C   0  0  0  0  0  0  0  0  0  0  0  0
   -4.0732    1.1102    0.0000 C   0  0  0  0  0  0  0  0  0  0  0  0
   -4.7885    1.5209    0.0000 C   0  0  0  0  0  0  0  0  0  0  0  0
   -4.0712    0.2853    0.0000 O   0  0  0  0  0  0  0  0  0  0  0  0
   -4.8731    2.3455    0.0000 O   0  0  0  0  0  0  0  0  0  0  0  0
   -5.6805    2.5150    0.0000 C   0  0  0  0  0  0  0  0  0  0  0  0
   -6.0913    1.7997    0.0000 C   0  0  0  0  0  0  0  0  0  0  0  0
   -5.5377    1.1880    0.0000 C   0  0  0  0  0  0  0  0  0  0  0  0
 17 18  1  0
  6  7  1  0
 17 19  1  0
  7  8  1  0
  8  9  1  1
  5 20  1  6
  9 10  1  0
 10 21  1  1
  5  6  1  0
 21 22  1  0
  4 11  1  6
 22 23  2  0
 24 25  2  0
 11 12  1  0
  1  2  1  0
 12 13  2  0
 12 31  1  0
 25 26  1  0
 26 27  2  0
 27 28  1  0
 28 24  1  0
 22 24  1  0
  1  4  1  0
  7 29  1  1
  1 14  1  6
  3 30  1  0
  2  3  1  0
  3 15  1  1
 14 32  1  0
  3  6  1  0
 32 33  1  0
  6 16  1  1
 32 34  2  0
 33 35  1  0
  5  4  1  0
  8 17  1  0
 16 17  1  0
  5 10  1  0
 35 36  1  0
 36 37  2  0
 37 38  1  0
 38 33  2  0
M  END
>  <Curated_InChIs>  (151) 
InChI=1S/C27H32O11/c1-14(28)35-21-18(36-22(30)16-8-6-10-33-16)13-25(4,32)27-20(29)15(24(2,3)38-27)12-19(26(21,27)5)37-23(31)17-9-7-11-34-17/h6-11,15,18-21,29,32H,12-13H2,1-5H3

>  <threshold>  (151) 
5

>  <pchembl>  (151) 
5.26

>  <Classification>  (151) 
1

>  <source>  (151) 
chembl_28

>  <SMILES>  (151) 
CC(=O)O[C@H]1[C@@H](OC(=O)c2ccco2)C[C@@](C)(O)[C@]23OC(C)(C)[C@H](C[C@H](OC(=O)c4ccco4)[C@]12C)[C@H]3O

>  <InChIKey>  (151) 
JXQLGVFTAKWAOV-YSGVRMLJSA-N

$$$$

     RDKit          2D

 29 31  0  0  0  0  0  0  0  0999 V2000
    6.2902  -11.3521    0.0000 C   0  0  0  0  0  0  0  0  0  0  0  0
    6.2902  -12.1723    0.0000 C   0  0  0  0  0  0  0  0  0  0  0  0
    7.0028  -12.5822    0.0000 C   0  0  0  0  0  0  0  0  0  0  0  0
    7.7099  -12.1668    0.0000 C   0  0  0  0  0  0  0  0  0  0  0  0
    7.7042  -11.3413    0.0000 C   0  0  0  0  0  0  0  0  0  0  0  0
    6.9952  -10.9391    0.0000 C   0  0  0  0  0  0  0  0  0  0  0  0
    8.4237  -12.5802    0.0000 N   0  0  0  0  0  0  0  0  0  0  0  0
    8.4259  -13.4024    0.0000 C   0  0  0  0  0  0  0  0  0  0  0  0
    9.1357  -13.8073    0.0000 C   0  0  0  0  0  0  0  0  0  0  0  0
    9.8479  -13.3986    0.0000 N   0  0  0  0  0  0  0  0  0  0  0  0
    9.8457  -12.5763    0.0000 C   0  0  0  0  0  0  0  0  0  0  0  0
    9.1313  -12.1628    0.0000 C   0  0  0  0  0  0  0  0  0  0  0  0
    5.5791  -12.5862    0.0000 C   0  0  0  0  0  0  0  0  0  0  0  0
    4.8665  -12.1746    0.0000 C   0  0  0  0  0  0  0  0  0  0  0  0
    4.1554  -12.5885    0.0000 C   0  0  0  0  0  0  0  0  0  0  0  0
    3.4429  -12.1770    0.0000 C   0  0  0  0  0  0  0  0  0  0  0  0
    4.1568  -13.4098    0.0000 O   0  0  0  0  0  0  0  0  0  0  0  0
    3.4450  -11.3562    0.0000 C   0  0  0  0  0  0  0  0  0  0  0  0
    2.7334  -10.9489    0.0000 C   0  0  0  0  0  0  0  0  0  0  0  0
    2.0212  -11.3587    0.0000 C   0  0  0  0  0  0  0  0  0  0  0  0
    2.0252  -12.1843    0.0000 C   0  0  0  0  0  0  0  0  0  0  0  0
    2.7375  -12.5920    0.0000 C   0  0  0  0  0  0  0  0  0  0  0  0
    2.7424  -13.4133    0.0000 O   0  0  0  0  0  0  0  0  0  0  0  0
    2.0330  -13.8262    0.0000 C   0  0  0  0  0  0  0  0  0  0  0  0
    1.3123  -10.9523    0.0000 O   0  0  0  0  0  0  0  0  0  0  0  0
    1.3099  -10.1309    0.0000 C   0  0  0  0  0  0  0  0  0  0  0  0
    4.1572  -10.9481    0.0000 O   0  0  0  0  0  0  0  0  0  0  0  0
    2.7324  -10.1276    0.0000 C   0  0  0  0  0  0  0  0  0  0  0  0
    3.4438   -9.7140    0.0000 C   0  0  0  0  0  0  0  0  0  0  0  0
  1  2  2  0
  2  3  1  0
  3  4  2  0
  4  5  1  0
  5  6  2  0
  6  1  1  0
  7  8  1  0
  7 12  1  0
  8  9  1  0
  9 10  1  0
 10 11  1  0
 11 12  1  0
  4  7  1  0
  2 13  1  0
 13 14  2  0
 14 15  1  0
 15 16  1  0
 15 17  2  0
 16 18  2  0
 18 19  1  0
 19 20  2  0
 20 21  1  0
 21 22  2  0
 22 16  1  0
 22 23  1  0
 23 24  1  0
 20 25  1  0
 25 26  1  0
 18 27  1  0
 19 28  1  0
 28 29  1  0
M  END
>  <Curated_InChIs>  (152) 
InChI=1S/C23H28N2O4/c1-4-18-20(28-2)15-21(29-3)22(23(18)27)19(26)9-8-16-6-5-7-17(14-16)25-12-10-24-11-13-25/h5-9,14-15,24,27H,4,10-13H2,1-3H3

>  <threshold>  (152) 
5

>  <pchembl>  (152) 
5.33

>  <Classification>  (152) 
1

>  <source>  (152) 
chembl_28

>  <SMILES>  (152) 
CCc1c(OC)cc(OC)c(C(=O)/C=C/c2cccc(N3CCNCC3)c2)c1O

>  <InChIKey>  (152) 
KHQMQWXGMJHNEF-CMDGGOBGSA-N

$$$$

     RDKit          2D

 33 36  0  0  0  0  0  0  0  0999 V2000
   40.1138  -15.9346    0.0000 O   0  0  0  0  0  0  0  0  0  0  0  0
   40.8203  -15.5239    0.0000 C   0  0  0  0  0  0  0  0  0  0  0  0
   41.5285  -15.9316    0.0000 C   0  0  0  0  0  0  0  0  0  0  0  0
   41.5187  -14.2972    0.0000 C   0  0  0  0  0  0  0  0  0  0  0  0
   40.8156  -14.7096    0.0000 C   0  0  0  0  0  0  0  0  0  0  0  0
   42.2326  -14.7036    0.0000 C   0  0  0  0  0  0  0  0  0  0  0  0
   42.2305  -15.5187    0.0000 C   0  0  0  0  0  0  0  0  0  0  0  0
   42.9316  -15.9257    0.0000 O   0  0  0  0  0  0  0  0  0  0  0  0
   43.6391  -15.5222    0.0000 C   0  0  0  0  0  0  0  0  0  0  0  0
   43.6411  -14.7071    0.0000 C   0  0  0  0  0  0  0  0  0  0  0  0
   42.9356  -14.2955    0.0000 C   0  0  0  0  0  0  0  0  0  0  0  0
   44.3452  -15.9335    0.0000 O   0  0  0  0  0  0  0  0  0  0  0  0
   44.3502  -14.3009    0.0000 C   0  0  0  0  0  0  0  0  0  0  0  0
   42.9365  -13.4783    0.0000 C   0  0  0  0  0  0  0  0  0  0  0  0
   33.0355  -15.9293    0.0000 C   0  0  0  0  0  0  0  0  0  0  0  0
   33.0344  -16.7489    0.0000 C   0  0  0  0  0  0  0  0  0  0  0  0
   33.7424  -17.1578    0.0000 C   0  0  0  0  0  0  0  0  0  0  0  0
   33.7406  -15.5205    0.0000 C   0  0  0  0  0  0  0  0  0  0  0  0
   34.4493  -15.9257    0.0000 C   0  0  0  0  0  0  0  0  0  0  0  0
   34.4481  -16.7464    0.0000 C   0  0  0  0  0  0  0  0  0  0  0  0
   35.1543  -17.1554    0.0000 C   0  0  0  0  0  0  0  0  0  0  0  0
   35.8662  -16.7484    0.0000 C   0  0  0  0  0  0  0  0  0  0  0  0
   35.8673  -15.9277    0.0000 N   0  0  0  0  0  0  0  0  0  0  0  0
   35.1566  -15.5141    0.0000 C   0  0  0  0  0  0  0  0  0  0  0  0
   36.5760  -15.5208    0.0000 C   0  0  0  0  0  0  0  0  0  0  0  0
   37.2828  -15.9311    0.0000 C   0  0  0  0  0  0  0  0  0  0  0  0
   37.9914  -15.5243    0.0000 C   0  0  0  0  0  0  0  0  0  0  0  0
   38.6982  -15.9346    0.0000 C   0  0  0  0  0  0  0  0  0  0  0  0
   39.4069  -15.5277    0.0000 C   0  0  0  0  0  0  0  0  0  0  0  0
   32.3277  -15.5209    0.0000 O   0  0  0  0  0  0  0  0  0  0  0  0
   31.6201  -15.9297    0.0000 C   0  0  0  0  0  0  0  0  0  0  0  0
   32.3264  -17.1569    0.0000 O   0  0  0  0  0  0  0  0  0  0  0  0
   31.6190  -16.7477    0.0000 C   0  0  0  0  0  0  0  0  0  0  0  0
  1  2  1  0
  2  3  2  0
  3  7  1  0
  6  4  1  0
  4  5  2  0
  5  2  1  0
  6  7  2  0
  6 11  1  0
  7  8  1  0
  8  9  1  0
  9 10  1  0
 10 11  2  0
  9 12  2  0
 10 13  1  0
 11 14  1  0
 15 16  2  0
 16 17  1  0
 17 20  2  0
 19 18  2  0
 18 15  1  0
 19 20  1  0
 19 24  1  0
 20 21  1  0
 21 22  1  0
 22 23  1  0
 23 24  1  0
 23 25  1  0
 25 26  1  0
 26 27  1  0
 27 28  1  0
 28 29  1  0
 29  1  1  0
 15 30  1  0
 30 31  1  0
 16 32  1  0
 32 33  1  0
M  END
>  <Curated_InChIs>  (153) 
InChI=1S/C27H33NO5/c1-18-19(2)27(29)33-24-16-22(8-9-23(18)24)32-13-7-5-6-11-28-12-10-20-14-25(30-3)26(31-4)15-21(20)17-28/h8-9,14-16H,5-7,10-13,17H2,1-4H3

>  <threshold>  (153) 
5

>  <pchembl>  (153) 
7.16

>  <Classification>  (153) 
1

>  <source>  (153) 
chembl_28

>  <SMILES>  (153) 
COc1cc2c(cc1OC)CN(CCCCCOc1ccc3c(C)c(C)c(=O)oc3c1)CC2

>  <InChIKey>  (153) 
KKHBQYDECRQPOM-UHFFFAOYSA-N

$$$$

     RDKit          2D

 32 35  0  0  0  0  0  0  0  0999 V2000
   20.1972   -4.3339    0.0000 O   0  0  0  0  0  0  0  0  0  0  0  0
   20.9190   -4.7169    0.0000 C   0  0  0  0  0  0  0  0  0  0  0  0
   20.9468   -5.5336    0.0000 C   0  0  0  0  0  0  0  0  0  0  0  0
   22.3295   -4.6621    0.0000 C   0  0  0  0  0  0  0  0  0  0  0  0
   21.6080   -4.2828    0.0000 C   0  0  0  0  0  0  0  0  0  0  0  0
   22.3615   -5.4829    0.0000 C   0  0  0  0  0  0  0  0  0  0  0  0
   21.6682   -5.9117    0.0000 C   0  0  0  0  0  0  0  0  0  0  0  0
   21.6928   -6.7219    0.0000 O   0  0  0  0  0  0  0  0  0  0  0  0
   22.4092   -7.1096    0.0000 C   0  0  0  0  0  0  0  0  0  0  0  0
   23.1024   -6.6808    0.0000 C   0  0  0  0  0  0  0  0  0  0  0  0
   23.0793   -5.8644    0.0000 C   0  0  0  0  0  0  0  0  0  0  0  0
   22.4328   -7.9265    0.0000 O   0  0  0  0  0  0  0  0  0  0  0  0
   23.8218   -7.0685    0.0000 Cl  0  0  0  0  0  0  0  0  0  0  0  0
   23.7737   -5.4336    0.0000 C   0  0  0  0  0  0  0  0  0  0  0  0
   13.8233   -4.7322    0.0000 C   0  0  0  0  0  0  0  0  0  0  0  0
   13.8221   -5.5517    0.0000 C   0  0  0  0  0  0  0  0  0  0  0  0
   14.5302   -5.9607    0.0000 C   0  0  0  0  0  0  0  0  0  0  0  0
   14.5284   -4.3233    0.0000 C   0  0  0  0  0  0  0  0  0  0  0  0
   15.2370   -4.7286    0.0000 C   0  0  0  0  0  0  0  0  0  0  0  0
   15.2359   -5.5492    0.0000 C   0  0  0  0  0  0  0  0  0  0  0  0
   15.9421   -5.9582    0.0000 C   0  0  0  0  0  0  0  0  0  0  0  0
   16.6539   -5.5512    0.0000 C   0  0  0  0  0  0  0  0  0  0  0  0
   16.6551   -4.7306    0.0000 N   0  0  0  0  0  0  0  0  0  0  0  0
   15.9444   -4.3170    0.0000 C   0  0  0  0  0  0  0  0  0  0  0  0
   17.3638   -4.3237    0.0000 C   0  0  0  0  0  0  0  0  0  0  0  0
   18.0705   -4.7340    0.0000 C   0  0  0  0  0  0  0  0  0  0  0  0
   18.7792   -4.3271    0.0000 C   0  0  0  0  0  0  0  0  0  0  0  0
   13.1155   -4.3237    0.0000 O   0  0  0  0  0  0  0  0  0  0  0  0
   12.4079   -4.7325    0.0000 C   0  0  0  0  0  0  0  0  0  0  0  0
   13.1141   -5.9597    0.0000 O   0  0  0  0  0  0  0  0  0  0  0  0
   12.4067   -5.5506    0.0000 C   0  0  0  0  0  0  0  0  0  0  0  0
   19.4859   -4.7374    0.0000 C   0  0  0  0  0  0  0  0  0  0  0  0
  1  2  1  0
  2  3  2  0
  3  7  1  0
  6  4  1  0
  4  5  2  0
  5  2  1  0
  6  7  2  0
  6 11  1  0
  7  8  1  0
  8  9  1  0
  9 10  1  0
 10 11  2  0
  9 12  2  0
 10 13  1  0
 11 14  1  0
 15 16  2  0
 16 17  1  0
 17 20  2  0
 19 18  2  0
 18 15  1  0
 19 20  1  0
 19 24  1  0
 20 21  1  0
 21 22  1  0
 22 23  1  0
 23 24  1  0
 23 25  1  0
 25 26  1  0
 26 27  1  0
 15 28  1  0
 28 29  1  0
 16 30  1  0
 30 31  1  0
 27 32  1  0
 32  1  1  0
M  END
>  <Curated_InChIs>  (154) 
InChI=1S/C25H28ClNO5/c1-16-20-7-6-19(14-21(20)32-25(28)24(16)26)31-11-5-4-9-27-10-8-17-12-22(29-2)23(30-3)13-18(17)15-27/h6-7,12-14H,4-5,8-11,15H2,1-3H3

>  <threshold>  (154) 
5

>  <pchembl>  (154) 
6.25

>  <Classification>  (154) 
1

>  <source>  (154) 
chembl_28

>  <SMILES>  (154) 
COc1cc2c(cc1OC)CN(CCCCOc1ccc3c(C)c(Cl)c(=O)oc3c1)CC2

>  <InChIKey>  (154) 
LGEZUHPVGBOBKA-UHFFFAOYSA-N

$$$$

     RDKit          2D

 34 38  0  0  0  0  0  0  0  0999 V2000
   13.5159   -6.1488    0.0000 C   0  0  0  0  0  0  0  0  0  0  0  0
   12.8035   -6.5574    0.0000 C   0  0  0  0  0  0  0  0  0  0  0  0
   11.3913   -6.5553    0.0000 C   0  0  0  0  0  0  0  0  0  0  0  0
   13.5243   -5.3316    0.0000 C   0  0  0  0  0  0  0  0  0  0  0  0
   14.3017   -5.0843    0.0000 C   0  0  0  0  0  0  0  0  0  0  0  0
   12.0974   -6.1467    0.0000 C   0  0  0  0  0  0  0  0  0  0  0  0
   11.3913   -7.3724    0.0000 C   0  0  0  0  0  0  0  0  0  0  0  0
   10.6851   -7.7810    0.0000 C   0  0  0  0  0  0  0  0  0  0  0  0
   14.2850   -6.4107    0.0000 C   0  0  0  0  0  0  0  0  0  0  0  0
   14.7752   -5.7548    0.0000 C   0  0  0  0  0  0  0  0  0  0  0  0
    9.2770   -7.7832    0.0000 N   0  0  0  0  0  0  0  0  0  0  0  0
    9.9831   -7.3724    0.0000 C   0  0  0  0  0  0  0  0  0  0  0  0
   12.8035   -7.3724    0.0000 C   0  0  0  0  0  0  0  0  0  0  0  0
   12.8119   -4.9209    0.0000 C   0  0  0  0  0  0  0  0  0  0  0  0
   10.6851   -6.1467    0.0000 C   0  0  0  0  0  0  0  0  0  0  0  0
   12.0974   -5.3211    0.0000 C   0  0  0  0  0  0  0  0  0  0  0  0
   12.0974   -7.7810    0.0000 C   0  0  0  0  0  0  0  0  0  0  0  0
    9.9831   -6.5553    0.0000 C   0  0  0  0  0  0  0  0  0  0  0  0
   13.5097   -6.9660    0.0000 C   0  0  0  0  0  0  0  0  0  0  0  0
   12.7930   -5.7381    0.0000 C   0  0  0  0  0  0  0  0  0  0  0  0
   11.3808   -5.7381    0.0000 C   0  0  0  0  0  0  0  0  0  0  0  0
   10.6851   -8.6758    0.0000 C   0  0  0  0  0  0  0  0  0  0  0  0
   10.0042   -8.2315    0.0000 C   0  0  0  0  0  0  0  0  0  0  0  0
   12.8174   -4.1058    0.0000 O   0  0  0  0  0  0  0  0  0  0  0  0
   14.5582   -4.3133    0.0000 C   0  0  0  0  0  0  0  0  0  0  0  0
   15.3314   -4.0689    0.0000 C   0  0  0  0  0  0  0  0  0  0  0  0
   15.3401   -3.2580    0.0000 C   0  0  0  0  0  0  0  0  0  0  0  0
   14.5730   -3.0015    0.0000 C   0  0  0  0  0  0  0  0  0  0  0  0
   14.0890   -3.6511    0.0000 O   0  0  0  0  0  0  0  0  0  0  0  0
   14.3326   -2.2226    0.0000 C   0  0  0  0  0  0  0  0  0  0  0  0
   14.8794   -1.6246    0.0000 O   0  0  0  0  0  0  0  0  0  0  0  0
   13.5328   -2.0477    0.0000 C   0  0  0  0  0  0  0  0  0  0  0  0
   14.1131   -1.4321    0.0000 C   0  0  0  0  0  0  0  0  0  0  0  0
   15.1357   -4.8874    0.0000 C   0  0  0  0  0  0  0  0  0  0  0  0
  2  1  1  0
  3  6  1  0
  4  1  1  0
  5  4  1  0
  6  2  1  0
  7 17  1  1
  8  7  1  0
  9  1  1  0
 10  9  1  0
 12 11  1  1
 12  8  1  0
 13  2  1  0
  4 14  1  6
 15  3  1  0
 16 14  1  0
 17 13  1  0
 18 15  1  0
  1 19  1  6
  2 20  1  1
  3 21  1  1
 22  8  1  0
 23  8  1  0
  5 10  1  1
  6 16  1  1
  7  3  1  0
 12 18  1  0
 14 24  1  1
  5 25  1  0
 25 26  1  0
 26 27  1  0
 27 28  1  0
 28 29  1  0
 29 25  1  0
 28 30  1  1
 30 31  1  0
 30 32  1  0
 30 33  1  0
 25 34  1  6
M  END
>  <Curated_InChIs>  (155) 
InChI=1S/C30H53NO3/c1-25(2)20-10-15-28(6)21(27(20,5)13-11-22(25)31)17-19(32)24-18(9-14-29(24,28)7)30(8)16-12-23(34-30)26(3,4)33/h18-24,32-33H,9-17,31H2,1-8H3

>  <threshold>  (155) 
5

>  <pchembl>  (155) 
7.32, 6.87

>  <Classification>  (155) 
1

>  <source>  (155) 
chembl_28

>  <SMILES>  (155) 
CC(C)(O)[C@H]1CC[C@@](C)([C@H]2CC[C@]3(C)[C@@H]2[C@H](O)C[C@@H]2[C@@]4(C)CC[C@H](N)C(C)(C)[C@@H]4CC[C@]23C)O1

>  <InChIKey>  (155) 
LPCBPIORAZSYNK-LEJKDQSTSA-N

$$$$

     RDKit          2D

 25 28  0  0  0  0  0  0  0  0999 V2000
   33.5901  -10.6565    0.0000 C   0  0  0  0  0  0  0  0  0  0  0  0
   33.5890  -11.4760    0.0000 C   0  0  0  0  0  0  0  0  0  0  0  0
   34.2970  -11.8850    0.0000 C   0  0  0  0  0  0  0  0  0  0  0  0
   34.2952  -10.2476    0.0000 C   0  0  0  0  0  0  0  0  0  0  0  0
   35.0038  -10.6529    0.0000 C   0  0  0  0  0  0  0  0  0  0  0  0
   35.0046  -11.4719    0.0000 C   0  0  0  0  0  0  0  0  0  0  0  0
   35.7131  -11.8789    0.0000 N   0  0  0  0  0  0  0  0  0  0  0  0
   36.4214  -11.4681    0.0000 C   0  0  0  0  0  0  0  0  0  0  0  0
   36.4166  -10.6460    0.0000 C   0  0  0  0  0  0  0  0  0  0  0  0
   35.7075  -10.2426    0.0000 C   0  0  0  0  0  0  0  0  0  0  0  0
   35.7032   -9.4255    0.0000 N   0  0  0  0  0  0  0  0  0  0  0  0
   36.4087   -9.0131    0.0000 C   0  0  0  0  0  0  0  0  0  0  0  0
   37.1140   -9.4213    0.0000 C   0  0  0  0  0  0  0  0  0  0  0  0
   37.8191   -9.0097    0.0000 C   0  0  0  0  0  0  0  0  0  0  0  0
   37.8152   -8.1916    0.0000 C   0  0  0  0  0  0  0  0  0  0  0  0
   37.1003   -7.7870    0.0000 C   0  0  0  0  0  0  0  0  0  0  0  0
   36.3982   -8.2010    0.0000 C   0  0  0  0  0  0  0  0  0  0  0  0
   37.1271  -11.8699    0.0000 C   0  0  0  0  0  0  0  0  0  0  0  0
   37.1290  -12.6882    0.0000 C   0  0  0  0  0  0  0  0  0  0  0  0
   37.8374  -13.0940    0.0000 C   0  0  0  0  0  0  0  0  0  0  0  0
   38.5445  -12.6826    0.0000 C   0  0  0  0  0  0  0  0  0  0  0  0
   38.5387  -11.8611    0.0000 C   0  0  0  0  0  0  0  0  0  0  0  0
   37.8297  -11.4591    0.0000 C   0  0  0  0  0  0  0  0  0  0  0  0
   38.5287   -9.4149    0.0000 S   0  0  0  0  0  0  0  0  0  0  0  0
   38.5327  -10.2320    0.0000 C   0  0  0  0  0  0  0  0  0  0  0  0
  1  2  2  0
  2  3  1  0
  3  6  2  0
  5  4  2  0
  4  1  1  0
  5  6  1  0
  6  7  1  0
  7  8  2  0
  8  9  1  0
  9 10  2  0
 10  5  1  0
 10 11  1  0
 11 12  1  0
 12 13  2  0
 13 14  1  0
 14 15  2  0
 15 16  1  0
 16 17  2  0
 17 12  1  0
 18 19  2  0
 19 20  1  0
 20 21  2  0
 21 22  1  0
 22 23  2  0
 23 18  1  0
  8 18  1  0
 14 24  1  0
 24 25  1  0
M  END
>  <Curated_InChIs>  (156) 
InChI=1S/C22H18N2S/c1-25-18-11-7-10-17(14-18)23-22-15-21(16-8-3-2-4-9-16)24-20-13-6-5-12-19(20)22/h2-15H,1H3,(H,23,24)

>  <threshold>  (156) 
5

>  <pchembl>  (156) 
5.85

>  <Classification>  (156) 
1

>  <source>  (156) 
chembl_28

>  <SMILES>  (156) 
CSc1cccc(Nc2cc(-c3ccccc3)nc3ccccc23)c1

>  <InChIKey>  (156) 
LTDJZGASGBIVLZ-UHFFFAOYSA-N

$$$$

     RDKit          2D

 30 33  0  0  0  0  0  0  0  0999 V2000
   35.7693   -8.9973    0.0000 C   0  0  0  0  0  0  0  0  0  0  0  0
   35.7681   -9.8169    0.0000 C   0  0  0  0  0  0  0  0  0  0  0  0
   36.4762  -10.2258    0.0000 C   0  0  0  0  0  0  0  0  0  0  0  0
   36.4744   -8.5885    0.0000 C   0  0  0  0  0  0  0  0  0  0  0  0
   37.1830   -8.9937    0.0000 C   0  0  0  0  0  0  0  0  0  0  0  0
   37.1818   -9.8144    0.0000 C   0  0  0  0  0  0  0  0  0  0  0  0
   37.8880  -10.2234    0.0000 C   0  0  0  0  0  0  0  0  0  0  0  0
   38.5999   -9.8164    0.0000 C   0  0  0  0  0  0  0  0  0  0  0  0
   38.6011   -8.9957    0.0000 N   0  0  0  0  0  0  0  0  0  0  0  0
   37.8904   -8.5821    0.0000 C   0  0  0  0  0  0  0  0  0  0  0  0
   39.3098   -8.5888    0.0000 C   0  0  0  0  0  0  0  0  0  0  0  0
   40.0165   -8.9991    0.0000 C   0  0  0  0  0  0  0  0  0  0  0  0
   40.7252   -8.5923    0.0000 O   0  0  0  0  0  0  0  0  0  0  0  0
   41.4319   -9.0026    0.0000 C   0  0  0  0  0  0  0  0  0  0  0  0
   41.4285   -9.8197    0.0000 C   0  0  0  0  0  0  0  0  0  0  0  0
   42.8434   -9.0016    0.0000 C   0  0  0  0  0  0  0  0  0  0  0  0
   42.1370   -8.5951    0.0000 C   0  0  0  0  0  0  0  0  0  0  0  0
   42.8441   -9.8230    0.0000 C   0  0  0  0  0  0  0  0  0  0  0  0
   42.1350  -10.2251    0.0000 C   0  0  0  0  0  0  0  0  0  0  0  0
   42.1286  -11.0356    0.0000 O   0  0  0  0  0  0  0  0  0  0  0  0
   42.8297  -11.4503    0.0000 C   0  0  0  0  0  0  0  0  0  0  0  0
   43.5388  -11.0483    0.0000 C   0  0  0  0  0  0  0  0  0  0  0  0
   43.5468  -10.2316    0.0000 C   0  0  0  0  0  0  0  0  0  0  0  0
   42.8222  -12.2675    0.0000 O   0  0  0  0  0  0  0  0  0  0  0  0
   44.2428  -11.4632    0.0000 C   0  0  0  0  0  0  0  0  0  0  0  0
   44.2571   -9.8276    0.0000 C   0  0  0  0  0  0  0  0  0  0  0  0
   35.0615   -8.5889    0.0000 O   0  0  0  0  0  0  0  0  0  0  0  0
   34.3539   -8.9977    0.0000 C   0  0  0  0  0  0  0  0  0  0  0  0
   35.0601  -10.2249    0.0000 O   0  0  0  0  0  0  0  0  0  0  0  0
   34.3527   -9.8157    0.0000 C   0  0  0  0  0  0  0  0  0  0  0  0
  1  2  2  0
  2  3  1  0
  3  6  2  0
  5  4  2  0
  4  1  1  0
  5  6  1  0
  5 10  1  0
  6  7  1  0
  7  8  1  0
  8  9  1  0
  9 10  1  0
  9 11  1  0
 11 12  1  0
 12 13  1  0
 13 14  1  0
 14 15  2  0
 15 19  1  0
 18 16  1  0
 16 17  2  0
 17 14  1  0
 18 19  2  0
 18 23  1  0
 19 20  1  0
 20 21  1  0
 21 22  1  0
 22 23  2  0
 21 24  2  0
 22 25  1  0
 23 26  1  0
  1 27  1  0
 27 28  1  0
  2 29  1  0
 29 30  1  0
M  END
>  <Curated_InChIs>  (157) 
InChI=1S/C24H27NO5/c1-15-16(2)24(26)30-21-13-19(5-6-20(15)21)29-10-9-25-8-7-17-11-22(27-3)23(28-4)12-18(17)14-25/h5-6,11-13H,7-10,14H2,1-4H3

>  <threshold>  (157) 
5

>  <pchembl>  (157) 
6.42

>  <Classification>  (157) 
1

>  <source>  (157) 
chembl_28

>  <SMILES>  (157) 
COc1cc2c(cc1OC)CN(CCOc1ccc3c(C)c(C)c(=O)oc3c1)CC2

>  <InChIKey>  (157) 
LVTKYEDEEITQKT-UHFFFAOYSA-N

$$$$

     RDKit          2D

 32 35  0  0  0  0  0  0  0  0999 V2000
   -2.8540    1.6544    0.0000 C   0  0  0  0  0  0  0  0  0  0  0  0
   -2.1370    2.0625    0.0000 O   0  0  0  0  0  0  0  0  0  0  0  0
   -3.5659    2.0713    0.0000 C   0  0  0  0  0  0  0  0  0  0  0  0
   -4.2829    1.6633    0.0000 C   0  0  0  0  0  0  0  0  0  0  0  0
   -4.9949    2.0802    0.0000 C   0  0  0  0  0  0  0  0  0  0  0  0
   -4.9897    2.9052    0.0000 C   0  0  0  0  0  0  0  0  0  0  0  0
   -4.2727    3.3132    0.0000 C   0  0  0  0  0  0  0  0  0  0  0  0
   -3.5608    2.8963    0.0000 C   0  0  0  0  0  0  0  0  0  0  0  0
   -2.8591    0.8294    0.0000 C   0  0  0  0  0  0  0  0  0  0  0  0
   -2.1472    0.4125    0.0000 C   0  0  0  0  0  0  0  0  0  0  0  0
   -2.1523   -0.4125    0.0000 C   0  0  0  0  0  0  0  0  0  0  0  0
   -2.8694   -0.8205    0.0000 C   0  0  0  0  0  0  0  0  0  0  0  0
   -3.5813   -0.4036    0.0000 C   0  0  0  0  0  0  0  0  0  0  0  0
   -3.5762    0.4214    0.0000 C   0  0  0  0  0  0  0  0  0  0  0  0
   -1.4404   -0.8294    0.0000 O   0  0  0  0  0  0  0  0  0  0  0  0
   -0.7209   -0.4257    0.0000 C   0  0  0  0  0  0  0  0  0  0  0  0
   -0.0064   -0.8382    0.0000 C   0  0  0  0  0  0  0  0  0  0  0  0
    0.7080   -0.4257    0.0000 C   0  0  0  0  0  0  0  0  0  0  0  0
    1.4225   -0.8382    0.0000 N   0  0  0  0  0  0  0  0  0  0  0  0
    2.1370   -0.4257    0.0000 C   0  0  0  0  0  0  0  0  0  0  0  0
    2.8514   -0.8382    0.0000 C   0  0  0  0  0  0  0  0  0  0  0  0
    2.8514   -1.6632    0.0000 N   0  0  0  0  0  0  0  0  0  0  0  0
    2.1370   -2.0757    0.0000 C   0  0  0  0  0  0  0  0  0  0  0  0
    1.4225   -1.6632    0.0000 C   0  0  0  0  0  0  0  0  0  0  0  0
    3.5659   -2.0757    0.0000 C   0  0  0  0  0  0  0  0  0  0  0  0
    4.2804   -1.6632    0.0000 C   0  0  0  0  0  0  0  0  0  0  0  0
    4.9949   -2.9007    0.0000 C   0  0  0  0  0  0  0  0  0  0  0  0
    3.5659   -2.9007    0.0000 C   0  0  0  0  0  0  0  0  0  0  0  0
    4.9949   -2.0757    0.0000 C   0  0  0  0  0  0  0  0  0  0  0  0
    4.2804   -3.3132    0.0000 C   0  0  0  0  0  0  0  0  0  0  0  0
    4.2804   -0.8382    0.0000 C   0  0  0  0  0  0  0  0  0  0  0  0
   -0.0064   -1.6632    0.0000 O   0  0  0  0  0  0  0  0  0  0  0  0
  1  2  2  0
  3  4  2  0
  4  5  1  0
  5  6  2  0
  6  7  1  0
  7  8  2  0
  3  8  1  0
  1  3  1  0
  9 10  2  0
 10 11  1  0
 11 12  2  0
 12 13  1  0
 13 14  2  0
  9 14  1  0
 16 17  1  0
 17 18  1  0
 15 16  1  0
 19 20  1  0
 20 21  1  0
 21 22  1  0
 22 23  1  0
 23 24  1  0
 19 24  1  0
 25 26  2  0
 25 28  1  0
 26 29  1  0
 27 29  2  0
 27 30  1  0
 28 30  2  0
 26 31  1  0
 22 25  1  0
 18 19  1  0
 17 32  1  0
 11 15  1  0
  1  9  1  0
M  END
>  <Curated_InChIs>  (158) 
InChI=1S/C27H30N2O3/c1-21-8-5-6-13-26(21)29-16-14-28(15-17-29)19-24(30)20-32-25-12-7-11-23(18-25)27(31)22-9-3-2-4-10-22/h2-13,18,24,30H,14-17,19-20H2,1H3

>  <threshold>  (158) 
5

>  <pchembl>  (158) 
6.7

>  <Classification>  (158) 
1

>  <source>  (158) 
chembl_28

>  <SMILES>  (158) 
Cc1ccccc1N1CCN(CC(O)COc2cccc(C(=O)c3ccccc3)c2)CC1

>  <InChIKey>  (158) 
LWLQRZIVDVWBMW-UHFFFAOYSA-N

$$$$

     RDKit          2D

 27 30  0  0  0  0  0  0  0  0999 V2000
   33.9615  -20.4297    0.0000 C   0  0  0  0  0  0  0  0  0  0  0  0
   33.9604  -21.2493    0.0000 C   0  0  0  0  0  0  0  0  0  0  0  0
   34.6684  -21.6582    0.0000 C   0  0  0  0  0  0  0  0  0  0  0  0
   34.6667  -20.0209    0.0000 C   0  0  0  0  0  0  0  0  0  0  0  0
   35.3753  -20.4261    0.0000 C   0  0  0  0  0  0  0  0  0  0  0  0
   35.3760  -21.2452    0.0000 C   0  0  0  0  0  0  0  0  0  0  0  0
   36.0846  -21.6522    0.0000 N   0  0  0  0  0  0  0  0  0  0  0  0
   36.7928  -21.2414    0.0000 C   0  0  0  0  0  0  0  0  0  0  0  0
   36.7881  -20.4193    0.0000 C   0  0  0  0  0  0  0  0  0  0  0  0
   36.0790  -20.0159    0.0000 C   0  0  0  0  0  0  0  0  0  0  0  0
   36.0747  -19.1987    0.0000 N   0  0  0  0  0  0  0  0  0  0  0  0
   36.7802  -18.7864    0.0000 C   0  0  0  0  0  0  0  0  0  0  0  0
   37.4855  -19.1946    0.0000 C   0  0  0  0  0  0  0  0  0  0  0  0
   38.1905  -18.7829    0.0000 C   0  0  0  0  0  0  0  0  0  0  0  0
   38.1866  -17.9649    0.0000 C   0  0  0  0  0  0  0  0  0  0  0  0
   37.4718  -17.5602    0.0000 C   0  0  0  0  0  0  0  0  0  0  0  0
   36.7697  -17.9742    0.0000 C   0  0  0  0  0  0  0  0  0  0  0  0
   37.4986  -21.6432    0.0000 C   0  0  0  0  0  0  0  0  0  0  0  0
   37.5004  -22.4615    0.0000 C   0  0  0  0  0  0  0  0  0  0  0  0
   38.2089  -22.8672    0.0000 C   0  0  0  0  0  0  0  0  0  0  0  0
   38.9160  -22.4558    0.0000 C   0  0  0  0  0  0  0  0  0  0  0  0
   38.9101  -21.6344    0.0000 C   0  0  0  0  0  0  0  0  0  0  0  0
   38.2011  -21.2324    0.0000 C   0  0  0  0  0  0  0  0  0  0  0  0
   38.9002  -19.1881    0.0000 N   0  0  0  0  0  0  0  0  0  0  0  0
   39.6059  -18.7761    0.0000 C   0  0  0  0  0  0  0  0  0  0  0  0
   40.3156  -19.1813    0.0000 C   0  0  0  0  0  0  0  0  0  0  0  0
   39.6020  -17.9589    0.0000 O   0  0  0  0  0  0  0  0  0  0  0  0
  1  2  2  0
  2  3  1  0
  3  6  2  0
  5  4  2  0
  4  1  1  0
  5  6  1  0
  6  7  1  0
  7  8  2  0
  8  9  1  0
  9 10  2  0
 10  5  1  0
 10 11  1  0
 11 12  1  0
 12 13  2  0
 13 14  1  0
 14 15  2  0
 15 16  1  0
 16 17  2  0
 17 12  1  0
 18 19  2  0
 19 20  1  0
 20 21  2  0
 21 22  1  0
 22 23  2  0
 23 18  1  0
  8 18  1  0
 14 24  1  0
 24 25  1  0
 25 26  1  0
 25 27  2  0
M  END
>  <Curated_InChIs>  (159) 
InChI=1S/C23H19N3O/c1-16(27)24-18-10-7-11-19(14-18)25-23-15-22(17-8-3-2-4-9-17)26-21-13-6-5-12-20(21)23/h2-15H,1H3,(H,24,27)(H,25,26)

>  <threshold>  (159) 
5

>  <pchembl>  (159) 
6.18

>  <Classification>  (159) 
1

>  <source>  (159) 
chembl_28

>  <SMILES>  (159) 
CC(=O)Nc1cccc(Nc2cc(-c3ccccc3)nc3ccccc23)c1

>  <InChIKey>  (159) 
MNCWMFWUVKUNLT-UHFFFAOYSA-N

$$$$

     RDKit          2D

 39 44  0  0  0  0  0  0  0  0999 V2000
    2.0440    1.7885    0.0000 C   0  0  0  0  0  0  0  0  0  0  0  0
   -1.6790   -0.3832    0.0000 C   0  0  0  0  0  0  0  0  0  0  0  0
   -1.6790   -1.8250    0.0000 C   0  0  0  0  0  0  0  0  0  0  0  0
    2.0440    0.3467    0.0000 C   0  0  0  0  0  0  0  0  0  0  0  0
   -0.4380    0.3285    0.0000 C   0  0  0  0  0  0  0  0  0  0  0  0
    0.8030   -0.3650    0.0000 C   0  0  0  0  0  0  0  0  0  0  0  0
    3.3032    2.5367    0.0000 C   0  0  0  0  0  0  0  0  0  0  0  0
   -2.9382   -2.5732    0.0000 C   0  0  0  0  0  0  0  0  0  0  0  0
    0.8030    2.5185    0.0000 C   0  0  0  0  0  0  0  0  0  0  0  0
   -0.4562    1.7885    0.0000 C   0  0  0  0  0  0  0  0  0  0  0  0
    4.5625    0.3285    0.0000 C   0  0  0  0  0  0  0  0  0  0  0  0
   -2.9565    0.3102    0.0000 C   0  0  0  0  0  0  0  0  0  0  0  0
    4.5625    1.8067    0.0000 C   0  0  0  0  0  0  0  0  0  0  0  0
    0.8212   -1.8067    0.0000 C   0  0  0  0  0  0  0  0  0  0  0  0
    3.2946    4.0378    0.0000 C   0  0  0  0  0  0  0  0  0  0  0  0
   -0.4197   -2.5550    0.0000 C   0  0  0  0  0  0  0  0  0  0  0  0
   -4.1792   -1.8432    0.0000 C   0  0  0  0  0  0  0  0  0  0  0  0
    2.2523    4.6325    0.0000 O   0  0  0  0  0  0  0  0  0  0  0  0
   -5.2209   -2.4390    0.0000 O   0  0  0  0  0  0  0  0  0  0  0  0
   -4.1792   -0.4015    0.0000 C   0  0  0  0  0  0  0  0  0  0  0  0
    2.0413    2.9885    0.0000 C   0  0  0  0  0  0  0  0  0  0  0  0
   -1.6930    0.8167    0.0000 C   0  0  0  0  0  0  0  0  0  0  0  0
    4.3305    4.6434    0.0000 C   0  0  0  0  0  0  0  0  0  0  0  0
   -1.7625    2.5282    0.0000 O   0  0  0  0  0  0  0  0  0  0  0  0
    2.1357   -2.5323    0.0000 O   0  0  0  0  0  0  0  0  0  0  0  0
    3.4213   -1.7578    0.0000 C   0  0  0  0  0  0  0  0  0  0  0  0
    3.3985   -0.5580    0.0000 O   0  0  0  0  0  0  0  0  0  0  0  0
    4.7353   -2.4830    0.0000 C   0  0  0  0  0  0  0  0  0  0  0  0
    6.0212   -1.7108    0.0000 C   0  0  0  0  0  0  0  0  0  0  0  0
    7.3330   -2.4383    0.0000 C   0  0  0  0  0  0  0  0  0  0  0  0
    7.3589   -3.9381    0.0000 C   0  0  0  0  0  0  0  0  0  0  0  0
    6.0730   -4.7104    0.0000 C   0  0  0  0  0  0  0  0  0  0  0  0
    4.7612   -3.9829    0.0000 C   0  0  0  0  0  0  0  0  0  0  0  0
   -1.7760    4.0289    0.0000 C   0  0  0  0  0  0  0  0  0  0  0  0
   -3.0802    4.7700    0.0000 O   0  0  0  0  0  0  0  0  0  0  0  0
   -3.0906    6.2699    0.0000 C   0  0  0  0  0  0  0  0  0  0  0  0
   -1.7968    7.0289    0.0000 C   0  0  0  0  0  0  0  0  0  0  0  0
   -0.4926    6.2880    0.0000 C   0  0  0  0  0  0  0  0  0  0  0  0
   -0.4822    4.7880    0.0000 C   0  0  0  0  0  0  0  0  0  0  0  0
  2  5  1  0
  3  2  1  0
  4  1  1  0
  5 10  1  1
  6  4  1  0
  7  1  1  0
  3  8  1  6
  9  1  1  0
 10  9  1  0
  4 11  1  1
 12  2  1  0
 13  7  1  0
  6 14  1  6
  7 15  1  1
 16 14  1  0
 17 20  1  0
 18 15  2  0
 19 17  2  0
 20 12  1  0
  1 21  1  1
  2 22  1  1
 23 15  1  0
 13 11  1  0
  5  6  1  0
 16  3  1  0
 17  8  1  0
 10 24  1  6
 14 25  1  6
 25 26  1  0
 26 27  2  0
 26 28  1  0
 28 29  2  0
 29 30  1  0
 30 31  2  0
 31 32  1  0
 32 33  2  0
 33 28  1  0
 34 24  1  1
 34 35  1  0
 34 39  1  0
 35 36  1  0
 36 37  1  0
 37 38  1  0
 38 39  1  0
M  END
>  <Curated_InChIs>  (160) 
InChI=1S/C33H44O6/c1-20(34)24-12-13-25-29-26(39-31(36)21-9-5-4-6-10-21)18-22-17-23(35)14-15-32(22,2)30(29)27(19-33(24,25)3)38-28-11-7-8-16-37-28/h4-6,9-10,22,24-30H,7-8,11-19H2,1-3H3

>  <threshold>  (160) 
5

>  <pchembl>  (160) 
8.0

>  <Classification>  (160) 
1

>  <source>  (160) 
chembl_28

>  <SMILES>  (160) 
CC(=O)[C@H]1CC[C@H]2[C@H]3[C@H]([C@H](O[C@@H]4CCCCO4)C[C@]12C)[C@@]1(C)CCC(=O)C[C@H]1C[C@H]3OC(=O)c1ccccc1

>  <InChIKey>  (160) 
MOULCIDBGVWHLU-QLBQNYPWSA-N

$$$$

     RDKit          2D

 31 33  0  0  0  0  0  0  0  0999 V2000
   16.4361   -7.1833    0.0000 C   0  0  0  0  0  0  0  0  0  0  0  0
   16.4349   -8.0107    0.0000 C   0  0  0  0  0  0  0  0  0  0  0  0
   17.1497   -8.4235    0.0000 C   0  0  0  0  0  0  0  0  0  0  0  0
   17.8662   -8.0102    0.0000 C   0  0  0  0  0  0  0  0  0  0  0  0
   17.8633   -7.1797    0.0000 C   0  0  0  0  0  0  0  0  0  0  0  0
   17.1479   -6.7705    0.0000 C   0  0  0  0  0  0  0  0  0  0  0  0
   18.5762   -6.7645    0.0000 C   0  0  0  0  0  0  0  0  0  0  0  0
   19.2922   -7.1743    0.0000 N   0  0  0  0  0  0  0  0  0  0  0  0
   20.0052   -6.7591    0.0000 C   0  0  0  0  0  0  0  0  0  0  0  0
   20.7196   -7.1723    0.0000 C   0  0  0  0  0  0  0  0  0  0  0  0
   21.4320   -6.7578    0.0000 C   0  0  0  0  0  0  0  0  0  0  0  0
   21.4293   -5.9319    0.0000 C   0  0  0  0  0  0  0  0  0  0  0  0
   20.7083   -5.5223    0.0000 C   0  0  0  0  0  0  0  0  0  0  0  0
   19.9988   -5.9392    0.0000 C   0  0  0  0  0  0  0  0  0  0  0  0
   18.5731   -5.9395    0.0000 O   0  0  0  0  0  0  0  0  0  0  0  0
   22.1381   -5.5154    0.0000 C   0  0  0  0  0  0  0  0  0  0  0  0
   22.8549   -5.9260    0.0000 C   0  0  0  0  0  0  0  0  0  0  0  0
   23.5668   -5.5106    0.0000 C   0  0  0  0  0  0  0  0  0  0  0  0
   23.5630   -4.6847    0.0000 C   0  0  0  0  0  0  0  0  0  0  0  0
   22.8415   -4.2760    0.0000 C   0  0  0  0  0  0  0  0  0  0  0  0
   22.1325   -4.6938    0.0000 C   0  0  0  0  0  0  0  0  0  0  0  0
   17.1495   -9.2485    0.0000 O   0  0  0  0  0  0  0  0  0  0  0  0
   16.4350   -9.6609    0.0000 C   0  0  0  0  0  0  0  0  0  0  0  0
   15.7201   -8.4226    0.0000 O   0  0  0  0  0  0  0  0  0  0  0  0
   15.0060   -8.0095    0.0000 C   0  0  0  0  0  0  0  0  0  0  0  0
   15.7215   -6.7710    0.0000 O   0  0  0  0  0  0  0  0  0  0  0  0
   15.7213   -5.9460    0.0000 C   0  0  0  0  0  0  0  0  0  0  0  0
   20.7206   -7.9973    0.0000 N   0  0  0  0  0  0  0  0  0  0  0  0
   21.4356   -8.4089    0.0000 C   0  0  0  0  0  0  0  0  0  0  0  0
   21.4367   -9.2339    0.0000 O   0  0  0  0  0  0  0  0  0  0  0  0
   22.1496   -7.9955    0.0000 C   0  0  0  0  0  0  0  0  0  0  0  0
  7 15  2  0
  3  4  1  0
  7  8  1  0
 16 17  2  0
 17 18  1  0
  8  9  1  0
 18 19  2  0
  4  5  2  0
 19 20  1  0
  9 10  2  0
 20 21  2  0
 21 16  1  0
 12 16  1  0
  2  3  2  0
  3 22  1  0
 10 11  1  0
 22 23  1  0
  5  6  1  0
  2 24  1  0
 11 12  2  0
 24 25  1  0
  6  1  2  0
  1 26  1  0
 12 13  1  0
 26 27  1  0
  1  2  1  0
 10 28  1  0
 13 14  2  0
 28 29  1  0
 14  9  1  0
 29 30  2  0
  5  7  1  0
 29 31  1  0
M  END
>  <Curated_InChIs>  (161) 
InChI=1S/C24H24N2O5/c1-15(27)25-20-12-17(16-8-6-5-7-9-16)10-11-19(20)26-24(28)18-13-21(29-2)23(31-4)22(14-18)30-3/h5-14H,1-4H3,(H,25,27)(H,26,28)

>  <threshold>  (161) 
5

>  <pchembl>  (161) 
5.72

>  <Classification>  (161) 
1

>  <source>  (161) 
chembl_28

>  <SMILES>  (161) 
COc1cc(C(=O)Nc2ccc(-c3ccccc3)cc2NC(C)=O)cc(OC)c1OC

>  <InChIKey>  (161) 
MPUIGRGISVRBNT-UHFFFAOYSA-N

$$$$

     RDKit          2D

 30 32  0  0  0  0  0  0  0  0999 V2000
   18.4986  -12.1404    0.0000 C   0  0  0  0  0  0  0  0  0  0  0  0
   18.4986  -12.9606    0.0000 C   0  0  0  0  0  0  0  0  0  0  0  0
   19.2111  -13.3664    0.0000 C   0  0  0  0  0  0  0  0  0  0  0  0
   19.9182  -12.9551    0.0000 C   0  0  0  0  0  0  0  0  0  0  0  0
   19.9125  -12.1296    0.0000 C   0  0  0  0  0  0  0  0  0  0  0  0
   19.2035  -11.7233    0.0000 C   0  0  0  0  0  0  0  0  0  0  0  0
   20.6320  -13.3643    0.0000 N   0  0  0  0  0  0  0  0  0  0  0  0
   20.6342  -14.1866    0.0000 C   0  0  0  0  0  0  0  0  0  0  0  0
   21.3441  -14.5956    0.0000 C   0  0  0  0  0  0  0  0  0  0  0  0
   22.0562  -14.1828    0.0000 N   0  0  0  0  0  0  0  0  0  0  0  0
   22.0540  -13.3605    0.0000 C   0  0  0  0  0  0  0  0  0  0  0  0
   21.3396  -12.9511    0.0000 C   0  0  0  0  0  0  0  0  0  0  0  0
   17.7874  -13.3703    0.0000 C   0  0  0  0  0  0  0  0  0  0  0  0
   17.0749  -12.9629    0.0000 C   0  0  0  0  0  0  0  0  0  0  0  0
   16.3637  -13.3727    0.0000 C   0  0  0  0  0  0  0  0  0  0  0  0
   15.6512  -12.9653    0.0000 C   0  0  0  0  0  0  0  0  0  0  0  0
   16.3651  -14.1940    0.0000 O   0  0  0  0  0  0  0  0  0  0  0  0
   15.6534  -12.1445    0.0000 C   0  0  0  0  0  0  0  0  0  0  0  0
   14.9417  -11.7331    0.0000 C   0  0  0  0  0  0  0  0  0  0  0  0
   14.2296  -12.1470    0.0000 C   0  0  0  0  0  0  0  0  0  0  0  0
   14.2336  -12.9726    0.0000 C   0  0  0  0  0  0  0  0  0  0  0  0
   14.9458  -13.3762    0.0000 C   0  0  0  0  0  0  0  0  0  0  0  0
   14.9507  -14.1975    0.0000 O   0  0  0  0  0  0  0  0  0  0  0  0
   14.2413  -14.6145    0.0000 C   0  0  0  0  0  0  0  0  0  0  0  0
   13.5206  -11.7364    0.0000 O   0  0  0  0  0  0  0  0  0  0  0  0
   13.5182  -10.9151    0.0000 C   0  0  0  0  0  0  0  0  0  0  0  0
   16.3655  -11.7323    0.0000 O   0  0  0  0  0  0  0  0  0  0  0  0
   14.9407  -10.9118    0.0000 C   0  0  0  0  0  0  0  0  0  0  0  0
   15.6521  -10.5023    0.0000 C   0  0  0  0  0  0  0  0  0  0  0  0
   15.6511   -9.6810    0.0000 C   0  0  0  0  0  0  0  0  0  0  0  0
  1  2  2  0
  2  3  1  0
  3  4  2  0
  4  5  1  0
  5  6  2  0
  6  1  1  0
  7  8  1  0
  7 12  1  0
  8  9  1  0
  9 10  1  0
 10 11  1  0
 11 12  1  0
  4  7  1  0
  2 13  1  0
 13 14  2  0
 14 15  1  0
 15 16  1  0
 15 17  2  0
 16 18  2  0
 18 19  1  0
 19 20  2  0
 20 21  1  0
 21 22  2  0
 22 16  1  0
 22 23  1  0
 23 24  1  0
 20 25  1  0
 25 26  1  0
 18 27  1  0
 19 28  1  0
 28 29  1  0
 29 30  1  0
M  END
>  <Curated_InChIs>  (162) 
InChI=1S/C24H30N2O4/c1-4-6-19-21(29-2)16-22(30-3)23(24(19)28)20(27)10-9-17-7-5-8-18(15-17)26-13-11-25-12-14-26/h5,7-10,15-16,25,28H,4,6,11-14H2,1-3H3

>  <threshold>  (162) 
5

>  <pchembl>  (162) 
5.29

>  <Classification>  (162) 
1

>  <source>  (162) 
chembl_28

>  <SMILES>  (162) 
CCCc1c(OC)cc(OC)c(C(=O)/C=C/c2cccc(N3CCNCC3)c2)c1O

>  <InChIKey>  (162) 
MQSLLOIUWQIXTE-MDZDMXLPSA-N

$$$$

     RDKit          2D

 47 53  0  0  0  0  0  0  0  0999 V2000
    9.9906  -11.9772    0.0000 C   0  0  0  0  0  0  0  0  0  0  0  0
    9.9895  -12.7967    0.0000 C   0  0  0  0  0  0  0  0  0  0  0  0
   10.6975  -13.2057    0.0000 C   0  0  0  0  0  0  0  0  0  0  0  0
   11.4072  -12.7962    0.0000 C   0  0  0  0  0  0  0  0  0  0  0  0
   10.6957  -11.5683    0.0000 C   0  0  0  0  0  0  0  0  0  0  0  0
   11.4034  -11.9741    0.0000 C   0  0  0  0  0  0  0  0  0  0  0  0
   12.1048  -11.5663    0.0000 C   0  0  0  0  0  0  0  0  0  0  0  0
   12.1046  -10.7511    0.0000 C   0  0  0  0  0  0  0  0  0  0  0  0
   11.3969  -10.3454    0.0000 C   0  0  0  0  0  0  0  0  0  0  0  0
   10.6894  -10.7548    0.0000 O   0  0  0  0  0  0  0  0  0  0  0  0
   12.8132  -11.9737    0.0000 O   0  0  0  0  0  0  0  0  0  0  0  0
   12.8116  -10.3414    0.0000 C   0  0  0  0  0  0  0  0  0  0  0  0
   13.5200  -10.7488    0.0000 O   0  0  0  0  0  0  0  0  0  0  0  0
   12.8103   -9.5242    0.0000 N   0  0  0  0  0  0  0  0  0  0  0  0
   13.5173   -9.1144    0.0000 C   0  0  0  0  0  0  0  0  0  0  0  0
   14.2236   -9.5246    0.0000 C   0  0  0  0  0  0  0  0  0  0  0  0
   14.9302   -9.1155    0.0000 C   0  0  0  0  0  0  0  0  0  0  0  0
   14.9293   -8.2975    0.0000 C   0  0  0  0  0  0  0  0  0  0  0  0
   14.2159   -7.8902    0.0000 C   0  0  0  0  0  0  0  0  0  0  0  0
   13.5123   -8.3016    0.0000 C   0  0  0  0  0  0  0  0  0  0  0  0
   15.6384   -9.5233    0.0000 O   0  0  0  0  0  0  0  0  0  0  0  0
   15.6393  -10.3405    0.0000 C   0  0  0  0  0  0  0  0  0  0  0  0
   15.6358   -7.8868    0.0000 O   0  0  0  0  0  0  0  0  0  0  0  0
   16.3447   -8.2932    0.0000 C   0  0  0  0  0  0  0  0  0  0  0  0
   12.8008   -7.9014    0.0000 C   0  0  0  0  0  0  0  0  0  0  0  0
   12.7106   -7.0892    0.0000 N   0  0  0  0  0  0  0  0  0  0  0  0
   11.9102   -6.9240    0.0000 N   0  0  0  0  0  0  0  0  0  0  0  0
   11.5058   -7.6341    0.0000 N   0  0  0  0  0  0  0  0  0  0  0  0
   12.0562   -8.2381    0.0000 N   0  0  0  0  0  0  0  0  0  0  0  0
   10.6960   -7.7255    0.0000 C   0  0  0  0  0  0  0  0  0  0  0  0
   10.2122   -7.0655    0.0000 C   0  0  0  0  0  0  0  0  0  0  0  0
    9.4007   -7.1553    0.0000 C   0  0  0  0  0  0  0  0  0  0  0  0
    9.0720   -7.9044    0.0000 C   0  0  0  0  0  0  0  0  0  0  0  0
    9.5609   -8.5645    0.0000 C   0  0  0  0  0  0  0  0  0  0  0  0
   10.3706   -8.4714    0.0000 C   0  0  0  0  0  0  0  0  0  0  0  0
    8.2600   -7.9957    0.0000 C   0  0  0  0  0  0  0  0  0  0  0  0
    7.7748   -7.3381    0.0000 C   0  0  0  0  0  0  0  0  0  0  0  0
    6.9628   -7.4294    0.0000 N   0  0  0  0  0  0  0  0  0  0  0  0
    6.4791   -6.7702    0.0000 C   0  0  0  0  0  0  0  0  0  0  0  0
    5.8235   -8.2662    0.0000 C   0  0  0  0  0  0  0  0  0  0  0  0
    6.6385   -8.1782    0.0000 C   0  0  0  0  0  0  0  0  0  0  0  0
    5.3394   -7.6067    0.0000 C   0  0  0  0  0  0  0  0  0  0  0  0
    5.6716   -6.8613    0.0000 C   0  0  0  0  0  0  0  0  0  0  0  0
    5.1925   -6.2030    0.0000 C   0  0  0  0  0  0  0  0  0  0  0  0
    4.3812   -6.2888    0.0000 C   0  0  0  0  0  0  0  0  0  0  0  0
    4.0513   -7.0386    0.0000 C   0  0  0  0  0  0  0  0  0  0  0  0
    4.5324   -7.6938    0.0000 C   0  0  0  0  0  0  0  0  0  0  0  0
  1  2  2  0
  2  3  1  0
  3  4  2  0
  4  6  1  0
  5  1  1  0
  5  6  2  0
  5 10  1  0
  6  7  1  0
  7  8  1  0
  8  9  2  0
  9 10  1  0
  7 11  2  0
  8 12  1  0
 12 13  2  0
 12 14  1  0
 14 15  1  0
 15 16  2  0
 16 17  1  0
 17 18  2  0
 18 19  1  0
 19 20  2  0
 20 15  1  0
 17 21  1  0
 21 22  1  0
 18 23  1  0
 23 24  1  0
 25 26  1  0
 26 27  2  0
 27 28  1  0
 28 29  1  0
 29 25  2  0
 20 25  1  0
 30 31  2  0
 31 32  1  0
 32 33  2  0
 33 34  1  0
 34 35  2  0
 35 30  1  0
 28 30  1  0
 33 36  1  0
 36 37  1  0
 37 38  1  0
 38 39  1  0
 38 41  1  0
 39 43  1  0
 42 40  1  0
 40 41  1  0
 42 43  2  0
 43 44  1  0
 44 45  2  0
 45 46  1  0
 46 47  2  0
 47 42  1  0
M  END
>  <Curated_InChIs>  (163) 
InChI=1S/C36H32N6O5/c1-45-32-19-28(30(20-33(32)46-2)37-36(44)29-22-47-31-10-6-5-9-27(31)34(29)43)35-38-40-42(39-35)26-13-11-23(12-14-26)15-17-41-18-16-24-7-3-4-8-25(24)21-41/h3-14,19-20,22H,15-18,21H2,1-2H3,(H,37,44)

>  <threshold>  (163) 
5

>  <pchembl>  (163) 
7.45

>  <Classification>  (163) 
1

>  <source>  (163) 
chembl_28

>  <SMILES>  (163) 
COc1cc(NC(=O)c2coc3ccccc3c2=O)c(-c2nnn(-c3ccc(CCN4CCc5ccccc5C4)cc3)n2)cc1OC

>  <InChIKey>  (163) 
MTSTVZWVQAZPCW-UHFFFAOYSA-N

$$$$

     RDKit          2D

 43 46  0  0  0  0  0  0  0  0999 V2000
   -2.6111    0.7486    0.0000 C   0  0  0  0  0  0  0  0  0  0  0  0
   -2.6111   -0.7486    0.0000 C   0  0  0  0  0  0  0  0  0  0  0  0
   -1.2964   -1.4973    0.0000 C   0  0  0  0  0  0  0  0  0  0  0  0
   -1.2964    1.4973    0.0000 C   0  0  0  0  0  0  0  0  0  0  0  0
    0.0000    0.7486    0.0000 C   0  0  0  0  0  0  0  0  0  0  0  0
    0.0000   -0.7486    0.0000 C   0  0  0  0  0  0  0  0  0  0  0  0
    1.2964   -1.4973    0.0000 C   0  0  0  0  0  0  0  0  0  0  0  0
    2.5929   -0.7486    0.0000 C   0  0  0  0  0  0  0  0  0  0  0  0
    2.5929    0.7486    0.0000 C   0  0  0  0  0  0  0  0  0  0  0  0
    1.2964    1.4973    0.0000 O   0  0  0  0  0  0  0  0  0  0  0  0
   -1.2907   -2.9981    0.0000 O   0  0  0  0  0  0  0  0  0  0  0  0
   -3.9091    1.5019    0.0000 O   0  0  0  0  0  0  0  0  0  0  0  0
    3.8926    1.4990    0.0000 C   0  0  0  0  0  0  0  0  0  0  0  0
    3.8951    2.9990    0.0000 C   0  0  0  0  0  0  0  0  0  0  0  0
    5.1953    3.7469    0.0000 C   0  0  0  0  0  0  0  0  0  0  0  0
    6.4931    2.9949    0.0000 C   0  0  0  0  0  0  0  0  0  0  0  0
    6.4907    1.4949    0.0000 C   0  0  0  0  0  0  0  0  0  0  0  0
    5.1905    0.7469    0.0000 C   0  0  0  0  0  0  0  0  0  0  0  0
    7.7878    0.7397    0.0000 O   0  0  0  0  0  0  0  0  0  0  0  0
    7.7956    3.7405    0.0000 O   0  0  0  0  0  0  0  0  0  0  0  0
    5.1946    5.2478    0.0000 O   0  0  0  0  0  0  0  0  0  0  0  0
    3.8911   -1.5017    0.0000 O   0  0  0  0  0  0  0  0  0  0  0  0
   -3.9072    2.7019    0.0000 C   0  0  0  0  0  0  0  0  0  0  0  0
   -2.3272   -3.6028    0.0000 C   0  0  0  0  0  0  0  0  0  0  0  0
    4.1555    5.8480    0.0000 C   0  0  0  0  0  0  0  0  0  0  0  0
    8.8331    3.1374    0.0000 C   0  0  0  0  0  0  0  0  0  0  0  0
    7.7841   -0.4603    0.0000 C   0  0  0  0  0  0  0  0  0  0  0  0
    3.8890   -3.0026    0.0000 C   0  0  0  0  0  0  0  0  0  0  0  0
    2.8487   -3.6008    0.0000 O   0  0  0  0  0  0  0  0  0  0  0  0
    5.1872   -3.7556    0.0000 C   0  0  0  0  0  0  0  0  0  0  0  0
    5.1850   -5.2565    0.0000 C   0  0  0  0  0  0  0  0  0  0  0  0
    6.4832   -6.0096    0.0000 C   0  0  0  0  0  0  0  0  0  0  0  0
    6.4833   -7.5096    0.0000 C   0  0  0  0  0  0  0  0  0  0  0  0
    7.7823   -8.2596    0.0000 C   0  0  0  0  0  0  0  0  0  0  0  0
    9.0814   -7.5096    0.0000 C   0  0  0  0  0  0  0  0  0  0  0  0
    9.0814   -6.0096    0.0000 C   0  0  0  0  0  0  0  0  0  0  0  0
    7.7824   -5.2596    0.0000 C   0  0  0  0  0  0  0  0  0  0  0  0
   10.3827   -8.2574    0.0000 O   0  0  0  0  0  0  0  0  0  0  0  0
   11.4210   -7.6560    0.0000 C   0  0  0  0  0  0  0  0  0  0  0  0
   10.3796   -5.2566    0.0000 O   0  0  0  0  0  0  0  0  0  0  0  0
   10.3780   -4.0566    0.0000 C   0  0  0  0  0  0  0  0  0  0  0  0
    7.7792   -9.7604    0.0000 O   0  0  0  0  0  0  0  0  0  0  0  0
    6.7391  -10.3589    0.0000 C   0  0  0  0  0  0  0  0  0  0  0  0
  1  2  2  0
  2  3  1  0
  3  6  2  0
  5  4  2  0
  4  1  1  0
  5  6  1  0
  5 10  1  0
  6  7  1  0
  7  8  1  0
  8  9  1  0
  9 10  1  0
  3 11  1  0
  1 12  1  0
 13 14  2  0
 14 15  1  0
 15 16  2  0
 16 17  1  0
 17 18  2  0
 18 13  1  0
  9 13  1  6
 17 19  1  0
 16 20  1  0
 15 21  1  0
  8 22  1  6
 12 23  1  0
 11 24  1  0
 21 25  1  0
 20 26  1  0
 19 27  1  0
 22 28  1  0
 28 29  2  0
 28 30  1  0
 30 31  2  0
 31 32  1  0
 32 33  2  0
 33 34  1  0
 34 35  2  0
 35 36  1  0
 36 37  2  0
 37 32  1  0
 38 39  1  0
 35 38  1  0
 40 41  1  0
 36 40  1  0
 42 43  1  0
 34 42  1  0
M  END
>  <Curated_InChIs>  (164) 
InChI=1S/C32H36O11/c1-34-20-15-22(35-2)21-17-28(42-29(33)10-9-18-11-24(36-3)31(40-7)25(12-18)37-4)30(43-23(21)16-20)19-13-26(38-5)32(41-8)27(14-19)39-6/h9-16,28,30H,17H2,1-8H3

>  <threshold>  (164) 
5

>  <pchembl>  (164) 
8.43

>  <Classification>  (164) 
1

>  <source>  (164) 
chembl_28

>  <SMILES>  (164) 
COc1cc(OC)c2c(c1)O[C@H](c1cc(OC)c(OC)c(OC)c1)[C@H](OC(=O)/C=C/c1cc(OC)c(OC)c(OC)c1)C2

>  <InChIKey>  (164) 
NECCTVFNAYKBCX-JPYFANRKSA-N

$$$$

     RDKit          2D

 39 44  0  0  0  0  0  0  0  0999 V2000
    3.1006  -27.3222    0.0000 C   0  0  0  0  0  0  0  0  0  0  0  0
    3.7399  -26.6409    0.0000 C   0  0  0  0  0  0  0  0  0  0  0  0
    3.8974  -27.0993    0.0000 C   0  0  0  0  0  0  0  0  0  0  0  0
    4.4404  -26.9052    0.0000 C   0  0  0  0  0  0  0  0  0  0  0  0
    4.6471  -27.3992    0.0000 C   0  0  0  0  0  0  0  0  0  0  0  0
    5.1853  -26.7173    0.0000 C   0  0  0  0  0  0  0  0  0  0  0  0
    3.8948  -26.2507    0.0000 C   0  0  0  0  0  0  0  0  0  0  0  0
    4.4461  -25.5949    0.0000 C   0  0  0  0  0  0  0  0  0  0  0  0
    3.7313  -25.8489    0.0000 C   0  0  0  0  0  0  0  0  0  0  0  0
    5.1911  -25.9020    0.0000 C   0  0  0  0  0  0  0  0  0  0  0  0
    4.4430  -24.7765    0.0000 N   0  0  0  0  0  0  0  0  0  0  0  0
    5.1542  -24.3668    0.0000 C   0  0  0  0  0  0  0  0  0  0  0  0
    5.8667  -24.7743    0.0000 C   0  0  0  0  0  0  0  0  0  0  0  0
    6.5779  -24.3645    0.0000 S   0  0  0  0  0  0  0  0  0  0  0  0
    5.1529  -23.5455    0.0000 O   0  0  0  0  0  0  0  0  0  0  0  0
    7.2903  -24.7720    0.0000 C   0  0  0  0  0  0  0  0  0  0  0  0
    8.0015  -24.3623    0.0000 C   0  0  0  0  0  0  0  0  0  0  0  0
    8.7140  -24.7698    0.0000 N   0  0  0  0  0  0  0  0  0  0  0  0
    8.0002  -23.5410    0.0000 O   0  0  0  0  0  0  0  0  0  0  0  0
    9.4252  -24.3601    0.0000 C   0  0  0  0  0  0  0  0  0  0  0  0
   10.1741  -24.6889    0.0000 N   0  0  0  0  0  0  0  0  0  0  0  0
   10.7200  -24.0766    0.0000 N   0  0  0  0  0  0  0  0  0  0  0  0
   10.3103  -23.3653    0.0000 C   0  0  0  0  0  0  0  0  0  0  0  0
    9.5071  -23.5408    0.0000 C   0  0  0  0  0  0  0  0  0  0  0  0
   10.6406  -22.6170    0.0000 C   0  0  0  0  0  0  0  0  0  0  0  0
   11.4586  -22.5315    0.0000 C   0  0  0  0  0  0  0  0  0  0  0  0
   11.7897  -21.7811    0.0000 C   0  0  0  0  0  0  0  0  0  0  0  0
   11.3081  -21.1198    0.0000 C   0  0  0  0  0  0  0  0  0  0  0  0
   10.4875  -21.2096    0.0000 C   0  0  0  0  0  0  0  0  0  0  0  0
   10.1560  -21.9602    0.0000 C   0  0  0  0  0  0  0  0  0  0  0  0
    9.3395  -22.0492    0.0000 C   0  0  0  0  0  0  0  0  0  0  0  0
   11.6383  -20.3682    0.0000 C   0  0  0  0  0  0  0  0  0  0  0  0
   12.6065  -21.6948    0.0000 C   0  0  0  0  0  0  0  0  0  0  0  0
   10.3473  -25.4902    0.0000 C   0  0  0  0  0  0  0  0  0  0  0  0
    9.7355  -26.0423    0.0000 C   0  0  0  0  0  0  0  0  0  0  0  0
    9.9068  -26.8447    0.0000 C   0  0  0  0  0  0  0  0  0  0  0  0
   10.6894  -27.0960    0.0000 C   0  0  0  0  0  0  0  0  0  0  0  0
   11.3009  -26.5389    0.0000 C   0  0  0  0  0  0  0  0  0  0  0  0
   11.1264  -25.7385    0.0000 C   0  0  0  0  0  0  0  0  0  0  0  0
  1  2  1  0
  1  3  1  0
  2  4  1  0
  3  5  1  0
  4  6  1  0
  5  6  1  0
  7  8  1  0
  3  7  1  0
  2  9  1  0
  6 10  1  0
 10  8  1  0
  8  9  1  0
 11 12  1  0
 12 13  1  0
 13 14  1  0
 12 15  2  0
 14 16  1  0
 16 17  1  0
 17 18  1  0
 17 19  2  0
 18 20  1  0
 20 21  1  0
 21 22  1  0
 22 23  2  0
 23 24  1  0
 24 20  2  0
 25 26  2  0
 26 27  1  0
 27 28  2  0
 28 29  1  0
 29 30  2  0
 30 25  1  0
 23 25  1  0
 30 31  1  0
 28 32  1  0
 27 33  1  0
 34 35  2  0
 35 36  1  0
 36 37  2  0
 37 38  1  0
 38 39  2  0
 39 34  1  0
 21 34  1  0
 11  8  1  0
M  END
>  <Curated_InChIs>  (165) 
InChI=1S/C32H38N4O2S/c1-20-9-22(3)27(10-21(20)2)28-14-29(36(35-28)26-7-5-4-6-8-26)33-30(37)18-39-19-31(38)34-32-15-23-11-24(16-32)13-25(12-23)17-32/h4-10,14,23-25H,11-13,15-19H2,1-3H3,(H,33,37)(H,34,38)

>  <threshold>  (165) 
5

>  <pchembl>  (165) 
6.64, 6.96, 7.89, 7.68

>  <Classification>  (165) 
1

>  <source>  (165) 
chembl_28

>  <SMILES>  (165) 
Cc1cc(C)c(-c2cc(NC(=O)CSCC(=O)NC34CC5CC(CC(C5)C3)C4)n(-c3ccccc3)n2)cc1C

>  <InChIKey>  (165) 
NJMLZLFEPYDIKZ-UHFFFAOYSA-N

$$$$

     RDKit          2D

 71 78  0  0  0  0  0  0  0  0999 V2000
   33.7710  -14.9959    0.0000 O   0  0  0  0  0  0  0  0  0  0  0  0
   34.5960  -15.0001    0.0000 S   0  0  0  0  0  0  0  0  0  0  0  0
   34.1872  -14.2836    0.0000 O   0  0  0  0  0  0  0  0  0  0  0  0
   33.1687  -14.9553    0.0000 O   0  0  0  0  0  0  0  0  0  0  0  0
   21.1620  -14.3456    0.0000 C   0  0  0  0  0  0  0  0  0  0  0  0
   21.7817  -13.7954    0.0000 N   0  0  0  0  0  0  0  0  0  0  0  0
   20.4577  -13.9312    0.0000 C   0  0  0  0  0  0  0  0  0  0  0  0
   19.7329  -14.3291    0.0000 C   0  0  0  0  0  0  0  0  0  0  0  0
   21.1662  -15.1708    0.0000 N   0  0  0  0  0  0  0  0  0  0  0  0
   20.6242  -13.1219    0.0000 N   0  0  0  0  0  0  0  0  0  0  0  0
   19.7287  -15.1542    0.0000 N   0  0  0  0  0  0  0  0  0  0  0  0
   21.4467  -13.0469    0.0000 C   0  0  0  0  0  0  0  0  0  0  0  0
   20.4369  -15.5769    0.0000 C   0  0  0  0  0  0  0  0  0  0  0  0
   22.6105  -13.8206    0.0000 C   0  0  0  0  0  0  0  0  0  0  0  0
   19.0203  -13.9146    0.0000 N   0  0  0  0  0  0  0  0  0  0  0  0
   23.1199  -13.1599    0.0000 C   0  0  0  0  0  0  0  0  0  0  0  0
   18.3117  -14.3336    0.0000 C   0  0  0  0  0  0  0  0  0  0  0  0
   23.8935  -13.4382    0.0000 C   0  0  0  0  0  0  0  0  0  0  0  0
   17.9054  -15.0505    0.0000 C   0  0  0  0  0  0  0  0  0  0  0  0
   17.4866  -14.3294    0.0000 C   0  0  0  0  0  0  0  0  0  0  0  0
   23.0802  -14.4969    0.0000 C   0  0  0  0  0  0  0  0  0  0  0  0
   20.4408  -16.4147    0.0000 N   0  0  0  0  0  0  0  0  0  0  0  0
   23.8726  -14.2630    0.0000 C   0  0  0  0  0  0  0  0  0  0  0  0
   25.3223  -14.2924    0.0000 O   0  0  0  0  0  0  0  0  0  0  0  0
   24.5808  -14.6898    0.0000 C   0  0  0  0  0  0  0  0  0  0  0  0
   26.0235  -14.7271    0.0000 C   0  0  0  0  0  0  0  0  0  0  0  0
   26.7505  -14.3373    0.0000 C   0  0  0  0  0  0  0  0  0  0  0  0
   25.9975  -15.5517    0.0000 O   0  0  0  0  0  0  0  0  0  0  0  0
   27.4517  -14.7720    0.0000 C   0  0  0  0  0  0  0  0  0  0  0  0
   28.1789  -14.3822    0.0000 C   0  0  0  0  0  0  0  0  0  0  0  0
   28.8800  -14.8170    0.0000 S   0  0  0  0  0  0  0  0  0  0  0  0
   29.6071  -14.4271    0.0000 S   0  0  0  0  0  0  0  0  0  0  0  0
   30.3082  -14.8619    0.0000 C   0  0  0  0  0  0  0  0  0  0  0  0
   31.0353  -14.4722    0.0000 C   0  0  0  0  0  0  0  0  0  0  0  0
   31.7365  -14.9069    0.0000 C   0  0  0  0  0  0  0  0  0  0  0  0
   32.4635  -14.5171    0.0000 C   0  0  0  0  0  0  0  0  0  0  0  0
   32.4895  -13.6925    0.0000 O   0  0  0  0  0  0  0  0  0  0  0  0
   33.1420  -15.7799    0.0000 C   0  0  0  0  0  0  0  0  0  0  0  0
   33.8426  -16.2155    0.0000 C   0  0  0  0  0  0  0  0  0  0  0  0
   34.5701  -15.8264    0.0000 N   0  0  0  0  0  0  0  0  0  0  0  0
   32.4145  -16.1690    0.0000 C   0  0  0  0  0  0  0  0  0  0  0  0
   31.7137  -15.7335    0.0000 C   0  0  0  0  0  0  0  0  0  0  0  0
   30.9863  -16.1226    0.0000 C   0  0  0  0  0  0  0  0  0  0  0  0
   32.3876  -16.9936    0.0000 N   0  0  0  0  0  0  0  0  0  0  0  0
   35.2708  -16.2618    0.0000 C   0  0  0  0  0  0  0  0  0  0  0  0
   35.3244  -14.6127    0.0000 C   0  0  0  0  0  0  0  0  0  0  0  0
   36.0239  -15.0520    0.0000 C   0  0  0  0  0  0  0  0  0  0  0  0
   36.7518  -14.6654    0.0000 C   0  0  0  0  0  0  0  0  0  0  0  0
   36.7809  -13.8400    0.0000 C   0  0  0  0  0  0  0  0  0  0  0  0
   36.0763  -13.4028    0.0000 C   0  0  0  0  0  0  0  0  0  0  0  0
   35.3512  -13.7920    0.0000 C   0  0  0  0  0  0  0  0  0  0  0  0
   37.5088  -13.4517    0.0000 N   0  0  0  0  0  0  0  0  0  0  0  0
   30.2868  -15.6863    0.0000 C   0  0  0  0  0  0  0  0  0  0  0  0
   29.5598  -16.0747    0.0000 C   0  0  0  0  0  0  0  0  0  0  0  0
   29.5326  -16.9002    0.0000 C   0  0  0  0  0  0  0  0  0  0  0  0
   30.2383  -17.3356    0.0000 C   0  0  0  0  0  0  0  0  0  0  0  0
   30.9624  -16.9448    0.0000 C   0  0  0  0  0  0  0  0  0  0  0  0
   35.2441  -17.0864    0.0000 C   0  0  0  0  0  0  0  0  0  0  0  0
   34.5166  -17.4755    0.0000 C   0  0  0  0  0  0  0  0  0  0  0  0
   35.9447  -17.5219    0.0000 C   0  0  0  0  0  0  0  0  0  0  0  0
   33.0884  -17.4291    0.0000 C   0  0  0  0  0  0  0  0  0  0  0  0
   33.0616  -18.2537    0.0000 O   0  0  0  0  0  0  0  0  0  0  0  0
   33.8158  -17.0400    0.0000 O   0  0  0  0  0  0  0  0  0  0  0  0
   32.3340  -18.6428    0.0000 C   0  0  0  0  0  0  0  0  0  0  0  0
   31.5918  -18.2842    0.0000 C   0  0  0  0  0  0  0  0  0  0  0  0
   31.0183  -18.8841    0.0000 O   0  0  0  0  0  0  0  0  0  0  0  0
   32.2213  -19.4612    0.0000 C   0  0  0  0  0  0  0  0  0  0  0  0
   31.4106  -19.6087    0.0000 C   0  0  0  0  0  0  0  0  0  0  0  0
   31.3003  -20.4254    0.0000 O   0  0  0  0  0  0  0  0  0  0  0  0
   32.0431  -20.7827    0.0000 C   0  0  0  0  0  0  0  0  0  0  0  0
   32.6121  -20.1867    0.0000 C   0  0  0  0  0  0  0  0  0  0  0  0
  2  1  2  0
  3  2  2  0
  6  5  1  0
  7  5  1  0
  8  7  2  0
  9  5  2  0
 10  7  1  0
 11 13  2  0
 12  6  1  0
 13  9  1  0
 14  6  1  1
 15  8  1  0
 16 14  1  0
 17 15  1  0
 18 16  2  0
 19 17  1  0
 20 17  1  0
 21 14  1  0
 22 13  1  0
 23 21  1  0
 24 25  1  0
 23 25  1  1
 12 10  2  0
  8 11  1  0
 23 18  1  0
 19 20  1  0
 24 26  1  0
 26 27  1  0
 26 28  2  0
 27 29  1  0
 29 30  1  0
 30 31  1  0
 31 32  1  0
 32 33  1  0
 33 34  1  0
 34 35  1  0
 35 36  1  0
 36 37  2  0
 36  4  1  0
 38  4  1  0
 38 39  1  6
 39 40  1  0
 38 41  1  0
 41 42  1  1
 42 43  1  0
 41 44  1  0
 40 45  1  0
 40  2  1  0
  2 46  1  0
 46 47  2  0
 47 48  1  0
 48 49  2  0
 49 50  1  0
 50 51  2  0
 51 46  1  0
 49 52  1  0
 43 53  2  0
 53 54  1  0
 54 55  2  0
 55 56  1  0
 56 57  2  0
 57 43  1  0
 45 58  1  0
 58 59  1  0
 58 60  1  0
 44 61  1  0
 61 62  1  0
 61 63  2  0
 64 62  1  6
 64 65  1  0
 65 66  1  0
 67 64  1  0
 68 66  1  6
 67 68  1  0
 68 69  1  0
 69 70  1  0
 70 71  1  0
 67 71  1  6
M  END
>  <Curated_InChIs>  (166) 
InChI=1S/C49H65N9O10S3/c1-31(2)26-57(71(62,63)37-18-13-34(50)14-19-37)27-40(39(25-32-8-4-3-5-9-32)54-49(61)68-41-29-66-47-38(41)20-21-64-47)67-43(60)11-7-23-70-69-22-6-10-42(59)65-28-33-12-17-36(24-33)58-30-52-44-45(53-35-15-16-35)55-48(51)56-46(44)58/h3-5,8-9,12-14,17-19,30-31,33,35-36,38-41,47H,6-7,10-11,15-16,20-29,50H2,1-2H3,(H,54,61)(H3,51,53,55,56)

>  <threshold>  (166) 
5

>  <pchembl>  (166) 
6.3, 6.29, 7.05, 7.1

>  <Classification>  (166) 
1

>  <source>  (166) 
chembl_28

>  <SMILES>  (166) 
CC(C)CN(C[C@@H](OC(=O)CCCSSCCCC(=O)OC[C@@H]1C=C[C@H](n2cnc3c(NC4CC4)nc(N)nc32)C1)[C@H](Cc1ccccc1)NC(=O)O[C@H]1CO[C@H]2OCC[C@@H]12)S(=O)(=O)c1ccc(N)cc1

>  <InChIKey>  (166) 
NMPBJJJCSCUGRY-OVLSJUFGSA-N

$$$$

     RDKit          2D

 43 46  0  0  0  0  0  0  0  0999 V2000
   -2.6111    0.7486    0.0000 C   0  0  0  0  0  0  0  0  0  0  0  0
   -2.6111   -0.7486    0.0000 C   0  0  0  0  0  0  0  0  0  0  0  0
   -1.2964   -1.4973    0.0000 C   0  0  0  0  0  0  0  0  0  0  0  0
   -1.2964    1.4973    0.0000 C   0  0  0  0  0  0  0  0  0  0  0  0
    0.0000    0.7486    0.0000 C   0  0  0  0  0  0  0  0  0  0  0  0
    0.0000   -0.7486    0.0000 C   0  0  0  0  0  0  0  0  0  0  0  0
    1.2964   -1.4973    0.0000 C   0  0  0  0  0  0  0  0  0  0  0  0
    2.5929   -0.7486    0.0000 C   0  0  0  0  0  0  0  0  0  0  0  0
    2.5929    0.7486    0.0000 C   0  0  0  0  0  0  0  0  0  0  0  0
    1.2964    1.4973    0.0000 O   0  0  0  0  0  0  0  0  0  0  0  0
   -1.2907   -2.9981    0.0000 O   0  0  0  0  0  0  0  0  0  0  0  0
   -3.9091    1.5019    0.0000 O   0  0  0  0  0  0  0  0  0  0  0  0
    3.8926    1.4990    0.0000 C   0  0  0  0  0  0  0  0  0  0  0  0
    3.8951    2.9990    0.0000 C   0  0  0  0  0  0  0  0  0  0  0  0
    5.1953    3.7469    0.0000 C   0  0  0  0  0  0  0  0  0  0  0  0
    6.4931    2.9949    0.0000 C   0  0  0  0  0  0  0  0  0  0  0  0
    6.4907    1.4949    0.0000 C   0  0  0  0  0  0  0  0  0  0  0  0
    5.1905    0.7469    0.0000 C   0  0  0  0  0  0  0  0  0  0  0  0
    7.7878    0.7397    0.0000 O   0  0  0  0  0  0  0  0  0  0  0  0
    7.7956    3.7405    0.0000 O   0  0  0  0  0  0  0  0  0  0  0  0
    5.1946    5.2478    0.0000 O   0  0  0  0  0  0  0  0  0  0  0  0
    3.8911   -1.5017    0.0000 O   0  0  0  0  0  0  0  0  0  0  0  0
   -3.9072    2.7019    0.0000 C   0  0  0  0  0  0  0  0  0  0  0  0
   -2.3272   -3.6028    0.0000 C   0  0  0  0  0  0  0  0  0  0  0  0
    4.1555    5.8480    0.0000 C   0  0  0  0  0  0  0  0  0  0  0  0
    8.8331    3.1374    0.0000 C   0  0  0  0  0  0  0  0  0  0  0  0
    7.7841   -0.4603    0.0000 C   0  0  0  0  0  0  0  0  0  0  0  0
    3.8890   -3.0026    0.0000 C   0  0  0  0  0  0  0  0  0  0  0  0
    2.8487   -3.6008    0.0000 O   0  0  0  0  0  0  0  0  0  0  0  0
    5.1872   -3.7556    0.0000 C   0  0  0  0  0  0  0  0  0  0  0  0
    5.1850   -5.2565    0.0000 C   0  0  0  0  0  0  0  0  0  0  0  0
    6.4832   -6.0096    0.0000 C   0  0  0  0  0  0  0  0  0  0  0  0
    6.4833   -7.5096    0.0000 C   0  0  0  0  0  0  0  0  0  0  0  0
    7.7823   -8.2596    0.0000 C   0  0  0  0  0  0  0  0  0  0  0  0
    9.0814   -7.5096    0.0000 C   0  0  0  0  0  0  0  0  0  0  0  0
    9.0814   -6.0096    0.0000 C   0  0  0  0  0  0  0  0  0  0  0  0
    7.7824   -5.2596    0.0000 C   0  0  0  0  0  0  0  0  0  0  0  0
   10.3827   -8.2574    0.0000 O   0  0  0  0  0  0  0  0  0  0  0  0
   11.4210   -7.6560    0.0000 C   0  0  0  0  0  0  0  0  0  0  0  0
   10.3796   -5.2566    0.0000 O   0  0  0  0  0  0  0  0  0  0  0  0
   10.3780   -4.0566    0.0000 C   0  0  0  0  0  0  0  0  0  0  0  0
    7.7792   -9.7604    0.0000 O   0  0  0  0  0  0  0  0  0  0  0  0
    6.7391  -10.3589    0.0000 C   0  0  0  0  0  0  0  0  0  0  0  0
  1  2  2  0
  2  3  1  0
  3  6  2  0
  5  4  2  0
  4  1  1  0
  5  6  1  0
  5 10  1  0
  6  7  1  0
  7  8  1  0
  8  9  1  0
  9 10  1  0
  3 11  1  0
  1 12  1  0
 13 14  2  0
 14 15  1  0
 15 16  2  0
 16 17  1  0
 17 18  2  0
 18 13  1  0
  9 13  1  6
 17 19  1  0
 16 20  1  0
 15 21  1  0
  8 22  1  6
 12 23  1  0
 11 24  1  0
 21 25  1  0
 20 26  1  0
 19 27  1  0
 22 28  1  0
 28 29  2  0
 28 30  1  0
 30 31  1  0
 31 32  1  0
 32 33  2  0
 33 34  1  0
 34 35  2  0
 35 36  1  0
 36 37  2  0
 37 32  1  0
 38 39  1  0
 35 38  1  0
 40 41  1  0
 36 40  1  0
 42 43  1  0
 34 42  1  0
M  END
>  <Curated_InChIs>  (167) 
InChI=1S/C32H38O11/c1-34-20-15-22(35-2)21-17-28(42-29(33)10-9-18-11-24(36-3)31(40-7)25(12-18)37-4)30(43-23(21)16-20)19-13-26(38-5)32(41-8)27(14-19)39-6/h11-16,28,30H,9-10,17H2,1-8H3

>  <threshold>  (167) 
5

>  <pchembl>  (167) 
7.75

>  <Classification>  (167) 
1

>  <source>  (167) 
chembl_28

>  <SMILES>  (167) 
COc1cc(OC)c2c(c1)O[C@H](c1cc(OC)c(OC)c(OC)c1)[C@H](OC(=O)CCc1cc(OC)c(OC)c(OC)c1)C2

>  <InChIKey>  (167) 
NMYHLQAELGNFJE-PQHLKRTFSA-N

$$$$

     RDKit          2D

 38 43  0  0  0  0  0  0  0  0999 V2000
    6.6774   -5.7488    0.0000 S   0  0  0  0  0  0  0  0  0  0  0  0
    7.3832   -6.1680    0.0000 C   0  0  0  0  0  0  0  0  0  0  0  0
    8.0984   -5.7643    0.0000 C   0  0  0  0  0  0  0  0  0  0  0  0
    8.8043   -6.1834    0.0000 N   0  0  0  0  0  0  0  0  0  0  0  0
    8.1078   -4.9414    0.0000 O   0  0  0  0  0  0  0  0  0  0  0  0
    9.5195   -5.7797    0.0000 C   0  0  0  0  0  0  0  0  0  0  0  0
   10.2660   -6.1178    0.0000 N   0  0  0  0  0  0  0  0  0  0  0  0
   10.8200   -5.5104    0.0000 N   0  0  0  0  0  0  0  0  0  0  0  0
   10.4162   -4.7951    0.0000 C   0  0  0  0  0  0  0  0  0  0  0  0
    9.6119   -4.9594    0.0000 C   0  0  0  0  0  0  0  0  0  0  0  0
   10.7562   -4.0533    0.0000 C   0  0  0  0  0  0  0  0  0  0  0  0
   11.5743   -3.9749    0.0000 C   0  0  0  0  0  0  0  0  0  0  0  0
   11.9176   -3.2303    0.0000 C   0  0  0  0  0  0  0  0  0  0  0  0
   11.4415   -2.5600    0.0000 C   0  0  0  0  0  0  0  0  0  0  0  0
   10.6182   -2.6392    0.0000 C   0  0  0  0  0  0  0  0  0  0  0  0
   10.2811   -3.3875    0.0000 C   0  0  0  0  0  0  0  0  0  0  0  0
   10.4255   -6.9165    0.0000 C   0  0  0  0  0  0  0  0  0  0  0  0
    9.8105   -7.4632    0.0000 C   0  0  0  0  0  0  0  0  0  0  0  0
    9.9725   -8.2634    0.0000 C   0  0  0  0  0  0  0  0  0  0  0  0
   10.7538   -8.5248    0.0000 C   0  0  0  0  0  0  0  0  0  0  0  0
   11.3709   -7.9764    0.0000 C   0  0  0  0  0  0  0  0  0  0  0  0
   11.2033   -7.1749    0.0000 C   0  0  0  0  0  0  0  0  0  0  0  0
    9.4620   -3.4659    0.0000 C   0  0  0  0  0  0  0  0  0  0  0  0
   11.7780   -1.8130    0.0000 C   0  0  0  0  0  0  0  0  0  0  0  0
   12.7312   -3.1534    0.0000 C   0  0  0  0  0  0  0  0  0  0  0  0
    5.9647   -6.1487    0.0000 C   0  0  0  0  0  0  0  0  0  0  0  0
    5.2657   -5.7286    0.0000 N   0  0  0  0  0  0  0  0  0  0  0  0
    4.5535   -6.1278    0.0000 N   0  0  0  0  0  0  0  0  0  0  0  0
    5.9600   -6.9614    0.0000 N   0  0  0  0  0  0  0  0  0  0  0  0
    5.2507   -7.3630    0.0000 C   0  0  0  0  0  0  0  0  0  0  0  0
    4.5400   -6.9489    0.0000 C   0  0  0  0  0  0  0  0  0  0  0  0
    5.0765   -8.1668    0.0000 N   0  0  0  0  0  0  0  0  0  0  0  0
    4.2582   -8.2496    0.0000 C   0  0  0  0  0  0  0  0  0  0  0  0
    3.9281   -7.5001    0.0000 C   0  0  0  0  0  0  0  0  0  0  0  0
    3.1158   -7.4124    0.0000 C   0  0  0  0  0  0  0  0  0  0  0  0
    2.6326   -8.0733    0.0000 C   0  0  0  0  0  0  0  0  0  0  0  0
    2.9675   -8.8241    0.0000 C   0  0  0  0  0  0  0  0  0  0  0  0
    3.7789   -8.9082    0.0000 C   0  0  0  0  0  0  0  0  0  0  0  0
  1  2  1  0
  2  3  1  0
  3  4  1  0
  3  5  2  0
  4  6  1  0
  6  7  1  0
  7  8  1  0
  8  9  2  0
  9 10  1  0
 10  6  2  0
 11 12  2  0
 12 13  1  0
 13 14  2  0
 14 15  1  0
 15 16  2  0
 16 11  1  0
  9 11  1  0
 17 18  2  0
 18 19  1  0
 19 20  2  0
 20 21  1  0
 21 22  2  0
 22 17  1  0
  7 17  1  0
 16 23  1  0
 14 24  1  0
 13 25  1  0
  1 26  1  0
 26 27  2  0
 27 28  1  0
 28 31  2  0
 30 29  2  0
 29 26  1  0
 30 31  1  0
 31 34  1  0
 33 32  1  0
 32 30  1  0
 33 34  2  0
 34 35  1  0
 35 36  2  0
 36 37  1  0
 37 38  2  0
 38 33  1  0
M  END
>  <Curated_InChIs>  (168) 
InChI=1S/C29H25N7OS/c1-17-13-19(3)22(14-18(17)2)24-15-25(36(35-24)20-9-5-4-6-10-20)31-26(37)16-38-29-32-28-27(33-34-29)21-11-7-8-12-23(21)30-28/h4-15H,16H2,1-3H3,(H,31,37)(H,30,32,34)

>  <threshold>  (168) 
5

>  <pchembl>  (168) 
7.77, 7.68, 6.37

>  <Classification>  (168) 
1

>  <source>  (168) 
chembl_28

>  <SMILES>  (168) 
Cc1cc(C)c(-c2cc(NC(=O)CSc3nnc4c(n3)[nH]c3ccccc34)n(-c3ccccc3)n2)cc1C

>  <InChIKey>  (168) 
NOTFJSIATRPNAH-UHFFFAOYSA-N

$$$$

     RDKit          2D

 31 34  0  0  0  0  0  0  0  0999 V2000
   16.0222   -7.9065    0.0000 N   0  0  0  0  0  0  0  0  0  0  0  0
   16.7310   -7.4975    0.0000 C   0  0  0  0  0  0  0  0  0  0  0  0
   16.7306   -6.6827    0.0000 N   0  0  0  0  0  0  0  0  0  0  0  0
   16.0233   -6.2733    0.0000 C   0  0  0  0  0  0  0  0  0  0  0  0
   15.3165   -6.6787    0.0000 C   0  0  0  0  0  0  0  0  0  0  0  0
   14.6093   -6.2693    0.0000 C   0  0  0  0  0  0  0  0  0  0  0  0
   13.9004   -6.6783    0.0000 C   0  0  0  0  0  0  0  0  0  0  0  0
   13.8988   -7.4967    0.0000 C   0  0  0  0  0  0  0  0  0  0  0  0
   14.6061   -7.9061    0.0000 C   0  0  0  0  0  0  0  0  0  0  0  0
   15.3149   -7.4971    0.0000 C   0  0  0  0  0  0  0  0  0  0  0  0
   16.0250   -5.4549    0.0000 N   0  0  0  0  0  0  0  0  0  0  0  0
   17.4383   -7.9069    0.0000 C   0  0  0  0  0  0  0  0  0  0  0  0
   17.4367   -8.7253    0.0000 C   0  0  0  0  0  0  0  0  0  0  0  0
   18.1439   -9.1347    0.0000 C   0  0  0  0  0  0  0  0  0  0  0  0
   18.8528   -8.7257    0.0000 C   0  0  0  0  0  0  0  0  0  0  0  0
   18.8523   -7.9109    0.0000 C   0  0  0  0  0  0  0  0  0  0  0  0
   18.1451   -7.5015    0.0000 C   0  0  0  0  0  0  0  0  0  0  0  0
   19.5600   -9.1351    0.0000 O   0  0  0  0  0  0  0  0  0  0  0  0
   19.5584   -9.9535    0.0000 C   0  0  0  0  0  0  0  0  0  0  0  0
   18.1423   -9.9531    0.0000 O   0  0  0  0  0  0  0  0  0  0  0  0
   18.8496  -10.3625    0.0000 C   0  0  0  0  0  0  0  0  0  0  0  0
   16.7338   -5.0459    0.0000 C   0  0  0  0  0  0  0  0  0  0  0  0
   17.4411   -5.4553    0.0000 C   0  0  0  0  0  0  0  0  0  0  0  0
   18.1479   -5.0499    0.0000 C   0  0  0  0  0  0  0  0  0  0  0  0
   18.1495   -4.2315    0.0000 C   0  0  0  0  0  0  0  0  0  0  0  0
   17.4422   -3.8221    0.0000 C   0  0  0  0  0  0  0  0  0  0  0  0
   16.7334   -4.2311    0.0000 C   0  0  0  0  0  0  0  0  0  0  0  0
   18.8583   -3.8225    0.0000 O   0  0  0  0  0  0  0  0  0  0  0  0
   18.8579   -3.0077    0.0000 C   0  0  0  0  0  0  0  0  0  0  0  0
   18.8551   -5.4593    0.0000 O   0  0  0  0  0  0  0  0  0  0  0  0
   19.5640   -5.0503    0.0000 C   0  0  0  0  0  0  0  0  0  0  0  0
  1  2  2  0
  2  3  1  0
  3  4  2  0
  4  5  1  0
  5  6  2  0
  6  7  1  0
  7  8  2  0
  8  9  1  0
  9 10  2  0
  1 10  1  0
  5 10  1  0
  4 11  1  0
 12 13  2  0
 13 14  1  0
 14 15  2  0
 15 16  1  0
 16 17  2  0
 12 17  1  0
 18 19  1  0
 15 18  1  0
 20 21  1  0
 14 20  1  0
  2 12  1  0
 22 23  2  0
 23 24  1  0
 24 25  2  0
 25 26  1  0
 26 27  2  0
 22 27  1  0
 28 29  1  0
 25 28  1  0
 30 31  1  0
 24 30  1  0
 11 22  1  0
M  END
>  <Curated_InChIs>  (169) 
InChI=1S/C24H23N3O4/c1-28-19-11-9-15(13-21(19)30-3)23-26-18-8-6-5-7-17(18)24(27-23)25-16-10-12-20(29-2)22(14-16)31-4/h5-14H,1-4H3,(H,25,26,27)

>  <threshold>  (169) 
5

>  <pchembl>  (169) 
5.46

>  <Classification>  (169) 
1

>  <source>  (169) 
chembl_28

>  <SMILES>  (169) 
COc1ccc(Nc2nc(-c3ccc(OC)c(OC)c3)nc3ccccc23)cc1OC

>  <InChIKey>  (169) 
NPEXIJINZNZJDD-UHFFFAOYSA-N

$$$$

     RDKit          2D

 78 81  0  0  0  0  0  0  0  0999 V2000
    0.7873   -1.9855    0.0000 N   0  0  0  0  0  0  0  0  0  0  0  0
    4.7119   -0.2837    0.0000 N   0  0  0  0  0  0  0  0  0  0  0  0
    7.0678   -4.7814    0.0000 C   0  0  0  0  0  0  0  0  0  0  0  0
    3.9072   -0.0579    0.0000 C   0  0  0  0  0  0  0  0  0  0  0  0
    7.7624   -3.5310    0.0000 N   0  0  0  0  0  0  0  0  0  0  0  0
    1.0072   -0.3184    0.0000 C   0  0  0  0  0  0  0  0  0  0  0  0
    7.0678   -5.6149    0.0000 N   0  0  0  0  0  0  0  0  0  0  0  0
    0.4862   -1.0651    0.0000 C   0  0  0  0  0  0  0  0  0  0  0  0
    0.3705   -2.6975    0.0000 C   0  0  0  0  0  0  0  0  0  0  0  0
    5.7365   -1.3082    0.0000 C   0  0  0  0  0  0  0  0  0  0  0  0
    7.7798   -4.3646    0.0000 C   0  0  0  0  0  0  0  0  0  0  0  0
    7.0504   -3.1316    0.0000 C   0  0  0  0  0  0  0  0  0  0  0  0
    5.3371   -5.5802    0.0000 N   0  0  0  0  0  0  0  0  0  0  0  0
    3.2706   -4.8508    0.0000 N   0  0  0  0  0  0  0  0  0  0  0  0
    2.2228   -0.1969    0.0000 O   0  0  0  0  0  0  0  0  0  0  0  0
    5.7538   -6.2748    0.0000 C   0  0  0  0  0  0  0  0  0  0  0  0
    4.0983   -4.8508    0.0000 C   0  0  0  0  0  0  0  0  0  0  0  0
    6.3211   -1.8987    0.0000 N   0  0  0  0  0  0  0  0  0  0  0  0
    2.0318   -4.1388    0.0000 C   0  0  0  0  0  0  0  0  0  0  0  0
    1.6150   -3.4268    0.0000 N   0  0  0  0  0  0  0  0  0  0  0  0
    3.1953    0.3588    0.0000 C   0  0  0  0  0  0  0  0  0  0  0  0
    7.0389   -2.2981    0.0000 C   0  0  0  0  0  0  0  0  0  0  0  0
    0.7873   -3.4268    0.0000 C   0  0  0  0  0  0  0  0  0  0  0  0
    4.9318   -1.0825    0.0000 C   0  0  0  0  0  0  0  0  0  0  0  0
    6.5815   -6.2748    0.0000 C   0  0  0  0  0  0  0  0  0  0  0  0
    4.5150   -5.5802    0.0000 C   0  0  0  0  0  0  0  0  0  0  0  0
    2.8538   -4.1388    0.0000 C   0  0  0  0  0  0  0  0  0  0  0  0
   -0.5210   -0.9783    0.0000 C   0  0  0  0  0  0  0  0  0  0  0  0
    6.3384   -4.3819    0.0000 O   0  0  0  0  0  0  0  0  0  0  0  0
    3.3227   -0.6484    0.0000 O   0  0  0  0  0  0  0  0  0  0  0  0
    0.5731    0.3762    0.0000 O   0  0  0  0  0  0  0  0  0  0  0  0
    8.4917   -4.7640    0.0000 C   0  0  0  0  0  0  0  0  0  0  0  0
    6.1474   -0.5963    0.0000 O   0  0  0  0  0  0  0  0  0  0  0  0
   -0.4515   -2.6975    0.0000 O   0  0  0  0  0  0  0  0  0  0  0  0
    6.3384   -3.5484    0.0000 O   0  0  0  0  0  0  0  0  0  0  0  0
    5.3371   -7.0041    0.0000 O   0  0  0  0  0  0  0  0  0  0  0  0
    4.5150   -4.1388    0.0000 O   0  0  0  0  0  0  0  0  0  0  0  0
    1.6150   -4.8508    0.0000 O   0  0  0  0  0  0  0  0  0  0  0  0
    7.7509   -1.8813    0.0000 C   0  0  0  0  0  0  0  0  0  0  0  0
    0.3705   -4.1388    0.0000 C   0  0  0  0  0  0  0  0  0  0  0  0
    3.1837    1.1750    0.0000 C   0  0  0  0  0  0  0  0  0  0  0  0
    1.6150   -1.9855    0.0000 C   0  0  0  0  0  0  0  0  0  0  0  0
    5.3023    0.3067    0.0000 C   0  0  0  0  0  0  0  0  0  0  0  0
    4.3414   -1.6729    0.0000 C   0  0  0  0  0  0  0  0  0  0  0  0
    7.8551   -5.8754    0.0000 C   0  0  0  0  0  0  0  0  0  0  0  0
    3.2706   -3.4268    0.0000 C   0  0  0  0  0  0  0  0  0  0  0  0
    4.0983   -6.2748    0.0000 C   0  0  0  0  0  0  0  0  0  0  0  0
    8.4744   -3.1143    0.0000 C   0  0  0  0  0  0  0  0  0  0  0  0
   -0.9551   -1.6729    0.0000 O   0  0  0  0  0  0  0  0  0  0  0  0
    9.2096   -4.3472    0.0000 C   0  0  0  0  0  0  0  0  0  0  0  0
    8.5786   -1.8813    0.0000 C   0  0  0  0  0  0  0  0  0  0  0  0
    7.0678   -6.9520    0.0000 C   0  0  0  0  0  0  0  0  0  0  0  0
    7.8551   -6.6916    0.0000 C   0  0  0  0  0  0  0  0  0  0  0  0
   -0.4515   -4.1388    0.0000 C   0  0  0  0  0  0  0  0  0  0  0  0
   -0.6946   -0.4573    0.0000 C   0  0  0  0  0  0  0  0  0  0  0  0
   -1.2156   -0.8915    0.0000 C   0  0  0  0  0  0  0  0  0  0  0  0
    3.9072    1.5918    0.0000 C   0  0  0  0  0  0  0  0  0  0  0  0
    4.5150   -7.0041    0.0000 C   0  0  0  0  0  0  0  0  0  0  0  0
    2.4833    1.5918    0.0000 C   0  0  0  0  0  0  0  0  0  0  0  0
    4.5498   -2.4717    0.0000 C   0  0  0  0  0  0  0  0  0  0  0  0
    2.8538   -2.6975    0.0000 C   0  0  0  0  0  0  0  0  0  0  0  0
    4.0983   -3.4268    0.0000 C   0  0  0  0  0  0  0  0  0  0  0  0
    3.5426   -1.4472    0.0000 C   0  0  0  0  0  0  0  0  0  0  0  0
    3.2706   -6.2748    0.0000 C   0  0  0  0  0  0  0  0  0  0  0  0
    8.9953   -2.5933    0.0000 C   0  0  0  0  0  0  0  0  0  0  0  0
    8.9780   -1.1520    0.0000 C   0  0  0  0  0  0  0  0  0  0  0  0
    9.2037   -3.5137    0.0000 C   0  0  0  0  0  0  0  0  0  0  0  0
    9.9331   -4.7640    0.0000 C   0  0  0  0  0  0  0  0  0  0  0  0
   -0.8683   -4.8508    0.0000 C   0  0  0  0  0  0  0  0  0  0  0  0
   -0.8683   -3.4268    0.0000 C   0  0  0  0  0  0  0  0  0  0  0  0
    4.0983   -7.7161    0.0000 C   0  0  0  0  0  0  0  0  0  0  0  0
    3.9072    2.4253    0.0000 C   0  0  0  0  0  0  0  0  0  0  0  0
   10.6277   -4.3472    0.0000 C   0  0  0  0  0  0  0  0  0  0  0  0
    9.9157   -3.0969    0.0000 C   0  0  0  0  0  0  0  0  0  0  0  0
    9.8115   -2.5759    0.0000 C   0  0  0  0  0  0  0  0  0  0  0  0
    9.8000   -1.1520    0.0000 C   0  0  0  0  0  0  0  0  0  0  0  0
   10.2168   -1.8639    0.0000 C   0  0  0  0  0  0  0  0  0  0  0  0
   10.6277   -3.5137    0.0000 C   0  0  0  0  0  0  0  0  0  0  0  0
  2  4  1  0
  3  7  1  0
  4 21  1  0
  5 12  1  0
  6  8  1  0
  7 25  1  0
  8  1  1  0
  9  1  1  0
 10 24  1  0
 11  5  1  0
 12 22  1  0
 26 13  1  1
 14 27  1  0
 15  6  1  0
 16 13  1  0
 17 14  1  0
 18 10  1  0
 19 20  1  0
 20 23  1  0
 21 15  1  6
 22 18  1  0
 23  9  1  0
 24  2  1  0
 25 16  1  0
 26 17  1  0
 27 19  1  0
  8 28  1  1
 29  3  2  0
 30  4  2  0
 31  6  2  0
 11 32  1  1
 33 10  2  0
 34  9  2  0
 35 12  2  0
 36 16  2  0
 37 17  2  0
 38 19  2  0
 22 39  1  1
 23 40  1  1
 21 41  1  0
 42  1  1  0
 43  2  1  0
 24 44  1  6
 45  7  1  0
 27 46  1  6
 26 47  1  0
 48  5  1  0
 49 28  1  0
 50 32  1  0
 51 39  1  0
 25 52  1  1
 53 52  1  0
 54 40  1  0
 55 28  1  0
 56 28  1  0
 57 41  1  0
 58 47  1  0
 41 59  1  1
 60 44  1  0
 61 46  1  0
 62 46  1  0
 63 44  1  0
 47 64  1  6
 65 51  2  0
 66 51  1  0
 67 50  2  0
 68 50  1  0
 69 54  1  0
 70 54  1  0
 71 58  1  0
 72 57  1  0
 73 68  2  0
 74 67  1  0
 75 65  1  0
 76 66  2  0
 77 76  1  0
 78 73  1  0
 45 53  1  0
 11  3  1  0
 77 75  2  0
 78 74  2  0
M  END
>  <Curated_InChIs>  (170) 
InChI=1S/C59H90N8O11/c1-16-37(9)46-52(70)62-45(35(5)6)51(69)60-41(31-34(3)4)55(73)66(15)49(59(11,12)77)58(76)78-48(38(10)17-2)57(75)65(14)47(36(7)8)53(71)61-42(32-39-25-20-18-21-26-39)54(72)64(13)44(33-40-27-22-19-23-28-40)56(74)67-30-24-29-43(67)50(68)63-46/h18-23,25-28,34-38,41-49,77H,16-17,24,29-33H2,1-15H3,(H,60,69)(H,61,71)(H,62,70)(H,63,68)

>  <threshold>  (170) 
5

>  <pchembl>  (170) 
5.12

>  <Classification>  (170) 
1

>  <source>  (170) 
chembl_28

>  <SMILES>  (170) 
CC[C@H](C)[C@@H]1NC(=O)[C@@H]2CCCN2C(=O)[C@H](Cc2ccccc2)N(C)C(=O)[C@H](Cc2ccccc2)NC(=O)[C@H](C(C)C)N(C)C(=O)[C@@H]([C@@H](C)CC)OC(=O)[C@H](C(C)(C)O)N(C)C(=O)[C@H](CC(C)C)NC(=O)[C@H](C(C)C)NC1=O

>  <InChIKey>  (170) 
NYMXEEYDKNDFED-CIVZPHJOSA-N

$$$$

     RDKit          2D

 33 36  0  0  0  0  0  0  0  0999 V2000
   27.9605   -5.4193    0.0000 C   0  0  0  0  0  0  0  0  0  0  0  0
   27.9593   -6.2388    0.0000 C   0  0  0  0  0  0  0  0  0  0  0  0
   28.6674   -6.6478    0.0000 C   0  0  0  0  0  0  0  0  0  0  0  0
   28.6656   -5.0104    0.0000 C   0  0  0  0  0  0  0  0  0  0  0  0
   29.3742   -5.4157    0.0000 C   0  0  0  0  0  0  0  0  0  0  0  0
   29.3730   -6.2363    0.0000 C   0  0  0  0  0  0  0  0  0  0  0  0
   30.0792   -6.6454    0.0000 C   0  0  0  0  0  0  0  0  0  0  0  0
   30.7911   -6.2383    0.0000 C   0  0  0  0  0  0  0  0  0  0  0  0
   30.7923   -5.4177    0.0000 N   0  0  0  0  0  0  0  0  0  0  0  0
   30.0815   -5.0041    0.0000 C   0  0  0  0  0  0  0  0  0  0  0  0
   31.5010   -5.0108    0.0000 C   0  0  0  0  0  0  0  0  0  0  0  0
   32.2077   -5.4211    0.0000 C   0  0  0  0  0  0  0  0  0  0  0  0
   32.9164   -5.0142    0.0000 C   0  0  0  0  0  0  0  0  0  0  0  0
   27.2527   -5.0108    0.0000 O   0  0  0  0  0  0  0  0  0  0  0  0
   26.5450   -5.4196    0.0000 C   0  0  0  0  0  0  0  0  0  0  0  0
   27.2513   -6.6468    0.0000 O   0  0  0  0  0  0  0  0  0  0  0  0
   26.5439   -6.2377    0.0000 C   0  0  0  0  0  0  0  0  0  0  0  0
   33.6231   -5.4245    0.0000 C   0  0  0  0  0  0  0  0  0  0  0  0
   34.3318   -5.0176    0.0000 C   0  0  0  0  0  0  0  0  0  0  0  0
   35.0385   -5.4279    0.0000 O   0  0  0  0  0  0  0  0  0  0  0  0
   35.7482   -5.0228    0.0000 C   0  0  0  0  0  0  0  0  0  0  0  0
   36.4532   -5.4361    0.0000 C   0  0  0  0  0  0  0  0  0  0  0  0
   36.4562   -3.8017    0.0000 C   0  0  0  0  0  0  0  0  0  0  0  0
   35.7498   -4.2085    0.0000 C   0  0  0  0  0  0  0  0  0  0  0  0
   37.1668   -4.2136    0.0000 C   0  0  0  0  0  0  0  0  0  0  0  0
   37.1584   -5.0287    0.0000 C   0  0  0  0  0  0  0  0  0  0  0  0
   37.8562   -5.4412    0.0000 O   0  0  0  0  0  0  0  0  0  0  0  0
   38.5669   -5.0432    0.0000 C   0  0  0  0  0  0  0  0  0  0  0  0
   38.5753   -4.2281    0.0000 C   0  0  0  0  0  0  0  0  0  0  0  0
   37.8730   -3.8110    0.0000 C   0  0  0  0  0  0  0  0  0  0  0  0
   39.2698   -5.4600    0.0000 O   0  0  0  0  0  0  0  0  0  0  0  0
   39.2876   -3.8275    0.0000 Cl  0  0  0  0  0  0  0  0  0  0  0  0
   37.8803   -2.9939    0.0000 C   0  0  0  0  0  0  0  0  0  0  0  0
  1  2  2  0
  2  3  1  0
  3  6  2  0
  5  4  2  0
  4  1  1  0
  5  6  1  0
  5 10  1  0
  6  7  1  0
  7  8  1  0
  8  9  1  0
  9 10  1  0
  9 11  1  0
 11 12  1  0
 12 13  1  0
  1 14  1  0
 14 15  1  0
  2 16  1  0
 16 17  1  0
 13 18  1  0
 18 19  1  0
 19 20  1  0
 20 21  1  0
 21 22  2  0
 22 26  1  0
 25 23  1  0
 23 24  2  0
 24 21  1  0
 25 26  2  0
 25 30  1  0
 26 27  1  0
 27 28  1  0
 28 29  1  0
 29 30  2  0
 28 31  2  0
 29 32  1  0
 30 33  1  0
M  END
>  <Curated_InChIs>  (171) 
InChI=1S/C26H30ClNO5/c1-17-21-8-7-20(15-22(21)33-26(29)25(17)27)32-12-6-4-5-10-28-11-9-18-13-23(30-2)24(31-3)14-19(18)16-28/h7-8,13-15H,4-6,9-12,16H2,1-3H3

>  <threshold>  (171) 
5

>  <pchembl>  (171) 
6.34

>  <Classification>  (171) 
1

>  <source>  (171) 
chembl_28

>  <SMILES>  (171) 
COc1cc2c(cc1OC)CN(CCCCCOc1ccc3c(C)c(Cl)c(=O)oc3c1)CC2

>  <InChIKey>  (171) 
NYPFUFIHNHZTTO-UHFFFAOYSA-N

$$$$

     RDKit          2D

 26 29  0  0  0  0  0  0  0  0999 V2000
   26.1446  -12.1794    0.0000 C   0  0  0  0  0  0  0  0  0  0  0  0
   26.1434  -12.9990    0.0000 C   0  0  0  0  0  0  0  0  0  0  0  0
   26.8515  -13.4079    0.0000 C   0  0  0  0  0  0  0  0  0  0  0  0
   26.8497  -11.7706    0.0000 C   0  0  0  0  0  0  0  0  0  0  0  0
   27.5583  -12.1758    0.0000 C   0  0  0  0  0  0  0  0  0  0  0  0
   27.5591  -12.9948    0.0000 C   0  0  0  0  0  0  0  0  0  0  0  0
   28.2676  -13.4019    0.0000 N   0  0  0  0  0  0  0  0  0  0  0  0
   28.9759  -12.9911    0.0000 C   0  0  0  0  0  0  0  0  0  0  0  0
   28.9711  -12.1689    0.0000 N   0  0  0  0  0  0  0  0  0  0  0  0
   28.2620  -11.7656    0.0000 C   0  0  0  0  0  0  0  0  0  0  0  0
   29.6893  -13.3941    0.0000 C   0  0  0  0  0  0  0  0  0  0  0  0
   29.7779  -14.2064    0.0000 C   0  0  0  0  0  0  0  0  0  0  0  0
   30.5779  -14.3732    0.0000 C   0  0  0  0  0  0  0  0  0  0  0  0
   30.9838  -13.6639    0.0000 C   0  0  0  0  0  0  0  0  0  0  0  0
   30.4345  -13.0588    0.0000 N   0  0  0  0  0  0  0  0  0  0  0  0
   28.2577  -10.9484    0.0000 N   0  0  0  0  0  0  0  0  0  0  0  0
   28.9632  -10.5361    0.0000 C   0  0  0  0  0  0  0  0  0  0  0  0
   29.6685  -10.9443    0.0000 C   0  0  0  0  0  0  0  0  0  0  0  0
   30.3736  -10.5326    0.0000 C   0  0  0  0  0  0  0  0  0  0  0  0
   30.3697   -9.7146    0.0000 C   0  0  0  0  0  0  0  0  0  0  0  0
   29.6548   -9.3099    0.0000 C   0  0  0  0  0  0  0  0  0  0  0  0
   28.9527   -9.7239    0.0000 C   0  0  0  0  0  0  0  0  0  0  0  0
   31.0832  -10.9378    0.0000 O   0  0  0  0  0  0  0  0  0  0  0  0
   31.0746   -9.3013    0.0000 O   0  0  0  0  0  0  0  0  0  0  0  0
   31.7850   -9.7052    0.0000 C   0  0  0  0  0  0  0  0  0  0  0  0
   31.0872  -11.7550    0.0000 C   0  0  0  0  0  0  0  0  0  0  0  0
  1  2  2  0
  2  3  1  0
  3  6  2  0
  5  4  2  0
  4  1  1  0
  5  6  1  0
  6  7  1  0
  7  8  2  0
  8  9  1  0
  9 10  2  0
 10  5  1  0
 11 12  2  0
 12 13  1  0
 13 14  2  0
 14 15  1  0
 15 11  1  0
  8 11  1  0
 10 16  1  0
 16 17  1  0
 17 18  2  0
 18 19  1  0
 19 20  2  0
 20 21  1  0
 21 22  2  0
 22 17  1  0
 19 23  1  0
 20 24  1  0
 24 25  1  0
 23 26  1  0
M  END
>  <Curated_InChIs>  (172) 
InChI=1S/C20H18N4O2/c1-25-17-10-9-13(12-18(17)26-2)22-19-14-6-3-4-7-15(14)23-20(24-19)16-8-5-11-21-16/h3-12,21H,1-2H3,(H,22,23,24)

>  <threshold>  (172) 
5

>  <pchembl>  (172) 
5.74

>  <Classification>  (172) 
1

>  <source>  (172) 
chembl_28

>  <SMILES>  (172) 
COc1ccc(Nc2nc(-c3ccc[nH]3)nc3ccccc23)cc1OC

>  <InChIKey>  (172) 
NYRQNTJRMWEOOQ-UHFFFAOYSA-N

$$$$

     RDKit          2D

 31 35  0  0  0  0  0  0  0  0999 V2000
   21.8646  -10.9000    0.0000 C   0  0  0  0  0  0  0  0  0  0  0  0
   21.8635  -11.7195    0.0000 C   0  0  0  0  0  0  0  0  0  0  0  0
   22.5715  -12.1285    0.0000 C   0  0  0  0  0  0  0  0  0  0  0  0
   22.5698  -10.4911    0.0000 C   0  0  0  0  0  0  0  0  0  0  0  0
   23.2784  -10.8964    0.0000 C   0  0  0  0  0  0  0  0  0  0  0  0
   23.2786  -11.7195    0.0000 C   0  0  0  0  0  0  0  0  0  0  0  0
   24.0616  -11.9737    0.0000 N   0  0  0  0  0  0  0  0  0  0  0  0
   24.0612  -10.6418    0.0000 C   0  0  0  0  0  0  0  0  0  0  0  0
   24.5454  -11.3089    0.0000 C   0  0  0  0  0  0  0  0  0  0  0  0
   25.3607  -11.2237    0.0000 C   0  0  0  0  0  0  0  0  0  0  0  0
   25.6981  -10.4723    0.0000 N   0  0  0  0  0  0  0  0  0  0  0  0
   25.2140   -9.8052    0.0000 C   0  0  0  0  0  0  0  0  0  0  0  0
   24.3923   -9.8894    0.0000 C   0  0  0  0  0  0  0  0  0  0  0  0
   26.5110  -10.3884    0.0000 C   0  0  0  0  0  0  0  0  0  0  0  0
   26.9901  -11.0504    0.0000 O   0  0  0  0  0  0  0  0  0  0  0  0
   26.8448   -9.6424    0.0000 C   0  0  0  0  0  0  0  0  0  0  0  0
   27.6579   -9.5626    0.0000 C   0  0  0  0  0  0  0  0  0  0  0  0
   27.9917   -8.8175    0.0000 C   0  0  0  0  0  0  0  0  0  0  0  0
   27.5124   -8.1545    0.0000 C   0  0  0  0  0  0  0  0  0  0  0  0
   26.6956   -8.2415    0.0000 C   0  0  0  0  0  0  0  0  0  0  0  0
   26.3656   -8.9868    0.0000 C   0  0  0  0  0  0  0  0  0  0  0  0
   25.8406  -11.8823    0.0000 C   0  0  0  0  0  0  0  0  0  0  0  0
   25.5052  -12.6287    0.0000 C   0  0  0  0  0  0  0  0  0  0  0  0
   25.9835  -13.2903    0.0000 C   0  0  0  0  0  0  0  0  0  0  0  0
   26.7973  -13.2068    0.0000 C   0  0  0  0  0  0  0  0  0  0  0  0
   27.1304  -12.4559    0.0000 C   0  0  0  0  0  0  0  0  0  0  0  0
   26.6500  -11.7974    0.0000 C   0  0  0  0  0  0  0  0  0  0  0  0
   27.2773  -13.8681    0.0000 N   0  0  0  0  0  0  0  0  0  0  0  0
   26.9445  -14.6145    0.0000 C   0  0  0  0  0  0  0  0  0  0  0  0
   27.4245  -15.2759    0.0000 O   0  0  0  0  0  0  0  0  0  0  0  0
   26.1317  -14.6995    0.0000 C   0  0  0  0  0  0  0  0  0  0  0  0
  1  2  2  0
  2  3  1  0
  3  6  2  0
  5  4  2  0
  4  1  1  0
  5  6  1  0
  6  7  1  0
  7  9  1  0
  8  5  1  0
  8  9  2  0
  8 13  1  0
  9 10  1  0
 10 11  1  0
 11 12  1  0
 12 13  1  0
 11 14  1  0
 14 15  2  0
 14 16  1  0
 16 17  2  0
 17 18  1  0
 18 19  2  0
 19 20  1  0
 20 21  2  0
 21 16  1  0
 22 23  2  0
 23 24  1  0
 24 25  2  0
 25 26  1  0
 26 27  2  0
 27 22  1  0
 10 22  1  0
 25 28  1  0
 28 29  1  0
 29 30  2  0
 29 31  1  0
M  END
>  <Curated_InChIs>  (173) 
InChI=1S/C26H23N3O2/c1-17(30)27-20-13-11-18(12-14-20)25-24-22(21-9-5-6-10-23(21)28-24)15-16-29(25)26(31)19-7-3-2-4-8-19/h2-14,25,28H,15-16H2,1H3,(H,27,30)

>  <threshold>  (173) 
5

>  <pchembl>  (173) 
5.13

>  <Classification>  (173) 
1

>  <source>  (173) 
chembl_28

>  <SMILES>  (173) 
CC(=O)Nc1ccc(C2c3[nH]c4ccccc4c3CCN2C(=O)c2ccccc2)cc1

>  <InChIKey>  (173) 
OGLVKNFLOWCEEQ-UHFFFAOYSA-N

$$$$

     RDKit          2D

 26 28  0  0  0  0  0  0  0  0999 V2000
   20.3582   -3.1779    0.0000 C   0  0  0  0  0  0  0  0  0  0  0  0
   20.3571   -3.9975    0.0000 C   0  0  0  0  0  0  0  0  0  0  0  0
   21.0651   -4.4064    0.0000 C   0  0  0  0  0  0  0  0  0  0  0  0
   21.7748   -3.9970    0.0000 C   0  0  0  0  0  0  0  0  0  0  0  0
   21.7719   -3.1743    0.0000 C   0  0  0  0  0  0  0  0  0  0  0  0
   21.0633   -2.7691    0.0000 C   0  0  0  0  0  0  0  0  0  0  0  0
   22.4781   -2.7631    0.0000 C   0  0  0  0  0  0  0  0  0  0  0  0
   23.1873   -3.1690    0.0000 C   0  0  0  0  0  0  0  0  0  0  0  0
   23.8935   -2.7577    0.0000 C   0  0  0  0  0  0  0  0  0  0  0  0
   24.6027   -3.1637    0.0000 C   0  0  0  0  0  0  0  0  0  0  0  0
   24.6027   -3.9797    0.0000 C   0  0  0  0  0  0  0  0  0  0  0  0
   25.3111   -4.3856    0.0000 C   0  0  0  0  0  0  0  0  0  0  0  0
   26.0183   -3.9743    0.0000 C   0  0  0  0  0  0  0  0  0  0  0  0
   26.0126   -3.1529    0.0000 C   0  0  0  0  0  0  0  0  0  0  0  0
   25.3036   -2.7507    0.0000 C   0  0  0  0  0  0  0  0  0  0  0  0
   22.4831   -4.4045    0.0000 O   0  0  0  0  0  0  0  0  0  0  0  0
   19.6490   -4.4055    0.0000 O   0  0  0  0  0  0  0  0  0  0  0  0
   22.4844   -5.2217    0.0000 C   0  0  0  0  0  0  0  0  0  0  0  0
   22.4750   -1.9459    0.0000 O   0  0  0  0  0  0  0  0  0  0  0  0
   19.6484   -5.2227    0.0000 C   0  0  0  0  0  0  0  0  0  0  0  0
   26.7176   -2.7415    0.0000 N   0  0  0  0  0  0  0  0  0  0  0  0
   27.4282   -3.1471    0.0000 C   0  0  0  0  0  0  0  0  0  0  0  0
   28.1308   -2.7368    0.0000 C   0  0  0  0  0  0  0  0  0  0  0  0
   28.1290   -1.9193    0.0000 N   0  0  0  0  0  0  0  0  0  0  0  0
   27.4185   -1.5137    0.0000 C   0  0  0  0  0  0  0  0  0  0  0  0
   26.7097   -1.9256    0.0000 C   0  0  0  0  0  0  0  0  0  0  0  0
  1  2  2  0
  2  3  1  0
  3  4  2  0
  4  5  1  0
  5  6  2  0
  6  1  1  0
  5  7  1  0
  7  8  1  0
  8  9  2  0
  9 10  1  0
 10 11  2  0
 11 12  1  0
 12 13  2  0
 13 14  1  0
 14 15  2  0
 15 10  1  0
  4 16  1  0
  2 17  1  0
 16 18  1  0
  7 19  2  0
 17 20  1  0
 21 22  1  0
 21 26  1  0
 22 23  1  0
 23 24  1  0
 24 25  1  0
 25 26  1  0
 14 21  1  0
M  END
>  <Curated_InChIs>  (174) 
InChI=1S/C21H24N2O3/c1-25-18-7-8-19(21(15-18)26-2)20(24)9-6-16-4-3-5-17(14-16)23-12-10-22-11-13-23/h3-9,14-15,22H,10-13H2,1-2H3

>  <threshold>  (174) 
5

>  <pchembl>  (174) 
5.31

>  <Classification>  (174) 
1

>  <source>  (174) 
chembl_28

>  <SMILES>  (174) 
COc1ccc(C(=O)/C=C/c2cccc(N3CCNCC3)c2)c(OC)c1

>  <InChIKey>  (174) 
OMYLBRKGEZTMGC-RMKNXTFCSA-N

$$$$

     RDKit          2D

 30 35  0  0  0  0  0  0  0  0999 V2000
    2.0847   -5.5644    0.0000 C   0  0  0  0  0  0  0  0  0  0  0  0
    2.7977   -4.3244    0.0000 C   0  0  0  0  0  0  0  0  0  0  0  0
    3.5130   -4.7334    0.0000 C   0  0  0  0  0  0  0  0  0  0  0  0
    3.5164   -5.5665    0.0000 C   0  0  0  0  0  0  0  0  0  0  0  0
    4.2356   -5.9777    0.0000 Se  0  0  0  0  0  2  0  0  0  0  0  0
    4.2288   -4.3117    0.0000 C   0  0  0  0  0  0  0  0  0  0  0  0
    4.9525   -4.7275    0.0000 C   0  0  0  0  0  0  0  0  0  0  0  0
    4.9554   -5.5645    0.0000 C   0  0  0  0  0  0  0  0  0  0  0  0
    5.6804   -5.9785    0.0000 C   0  0  0  0  0  0  0  0  0  0  0  0
    6.4031   -5.5570    0.0000 C   0  0  0  0  0  0  0  0  0  0  0  0
    6.3961   -4.7169    0.0000 C   0  0  0  0  0  0  0  0  0  0  0  0
    5.6704   -4.3066    0.0000 C   0  0  0  0  0  0  0  0  0  0  0  0
    4.2242   -3.4868    0.0000 C   0  0  0  0  0  0  0  0  0  0  0  0
    4.9406   -3.0749    0.0000 C   0  0  0  0  0  0  0  0  0  0  0  0
    4.2233   -1.8419    0.0000 C   0  0  0  0  0  0  0  0  0  0  0  0
    3.5092   -2.2600    0.0000 C   0  0  0  0  0  0  0  0  0  0  0  0
    4.9381   -2.2544    0.0000 C   0  0  0  0  0  0  0  0  0  0  0  0
    3.5101   -3.0839    0.0000 C   0  0  0  0  0  0  0  0  0  0  0  0
    7.1201   -5.9648    0.0000 N   0  0  0  0  0  0  0  0  0  0  0  0
    7.1254   -6.7898    0.0000 C   0  0  0  0  0  0  0  0  0  0  0  0
    7.8319   -5.5478    0.0000 C   0  0  0  0  0  0  0  0  0  0  0  0
    1.3700   -5.9763    0.0000 N   0  0  0  0  0  0  0  0  0  0  0  0
    1.3694   -6.8013    0.0000 C   0  0  0  0  0  0  0  0  0  0  0  0
    2.0834   -7.2142    0.0000 C   0  0  0  0  0  0  0  0  0  0  0  0
    2.7982   -6.8024    0.0000 C   0  0  0  0  0  0  0  0  0  0  0  0
    2.7989   -5.9774    0.0000 C   0  0  0  0  0  0  0  0  0  0  0  0
    0.6559   -5.5633    0.0000 C   0  0  0  0  0  0  0  0  0  0  0  0
    0.6565   -4.7383    0.0000 C   0  0  0  0  0  0  0  0  0  0  0  0
    1.3713   -4.3265    0.0000 C   0  0  0  0  0  0  0  0  0  0  0  0
    2.0854   -4.7394    0.0000 C   0  0  0  0  0  0  0  0  0  0  0  0
  9 10  1  0
  1 26  1  0
 10 11  1  0
 26  4  2  0
 11 12  2  0
 12  7  1  0
  6 13  1  0
 13 14  2  0
  3  2  2  0
 15 16  1  0
  2 30  1  0
  3  4  1  0
 13 18  1  0
 14 17  1  0
 17 15  2  0
 16 18  2  0
 10 19  2  3
 19 20  1  0
  3  6  1  0
 19 21  1  0
  4  5  1  0
  1 22  1  0
  5  8  1  0
 22 23  1  0
  7  6  2  0
 23 24  1  0
 24 25  1  0
 25 26  1  0
  7  8  1  0
 22 27  1  0
 27 28  1  0
  8  9  2  0
 28 29  1  0
 30  1  2  0
 29 30  1  0
M  CHG  1  19   1
M  END
>  <Curated_InChIs>  (175) 
InChI=1S/C27H27N2Se/c1-28(2)20-12-13-21-24(17-20)30-27-22-11-7-15-29-14-6-10-19(26(22)29)16-23(27)25(21)18-8-4-3-5-9-18/h3-5,8-9,12-13,16-17H,6-7,10-11,14-15H2,1-2H3

>  <threshold>  (175) 
5

>  <pchembl>  (175) 
5.64, 5.31

>  <Classification>  (175) 
1

>  <source>  (175) 
chembl_28

>  <SMILES>  (175) 
C[N+](C)=c1ccc2c(-c3ccccc3)c3cc4c5c(c3[se]c-2c1)CCCN5CCC4

>  <InChIKey>  (175) 
OQGXCRJXQAJTPP-UHFFFAOYSA-N

$$$$

     RDKit          2D

 49 52  0  0  0  0  0  0  0  0999 V2000
   45.6389  -12.1134    0.0000 C   0  0  0  0  0  0  0  0  0  0  0  0
   45.2344  -12.8233    0.0000 C   0  0  0  0  0  0  0  0  0  0  0  0
   46.0514  -12.8186    0.0000 C   0  0  0  0  0  0  0  0  0  0  0  0
   43.2609  -13.6438    0.0000 C   0  0  0  0  0  0  0  0  0  0  0  0
   43.8361  -12.2449    0.0000 C   0  0  0  0  0  0  0  0  0  0  0  0
   43.8362  -14.2190    0.0000 C   0  0  0  0  0  0  0  0  0  0  0  0
   44.6558  -14.2190    0.0000 C   0  0  0  0  0  0  0  0  0  0  0  0
   45.2351  -13.6438    0.0000 C   0  0  0  0  0  0  0  0  0  0  0  0
   44.6558  -12.2448    0.0000 C   0  0  0  0  0  0  0  0  0  0  0  0
   40.5954  -12.6541    0.0000 C   0  0  0  0  0  0  0  0  0  0  0  0
   41.0823  -11.9954    0.0000 C   0  0  0  0  0  0  0  0  0  0  0  0
   41.0755  -13.3249    0.0000 C   0  0  0  0  0  0  0  0  0  0  0  0
   40.6713  -14.0356    0.0000 O   0  0  0  0  0  0  0  0  0  0  0  0
   41.4443  -11.5407    0.0000 O   0  0  0  0  0  0  0  0  0  0  0  0
   41.8618  -13.0701    0.0000 C   0  0  0  0  0  0  0  0  0  0  0  0
   41.8619  -12.2504    0.0000 C   0  0  0  0  0  0  0  0  0  0  0  0
   42.4385  -11.6739    0.0000 C   0  0  0  0  0  0  0  0  0  0  0  0
   42.4386  -13.6468    0.0000 C   0  0  0  0  0  0  0  0  0  0  0  0
   43.8349  -13.0701    0.0000 C   0  0  0  0  0  0  0  0  0  0  0  0
   43.2582  -11.6737    0.0000 C   0  0  0  0  0  0  0  0  0  0  0  0
   42.1257  -10.9189    0.0000 O   0  0  0  0  0  0  0  0  0  0  0  0
   43.5709  -10.9187    0.0000 C   0  0  0  0  0  0  0  0  0  0  0  0
   45.9896  -13.9576    0.0000 O   0  0  0  0  0  0  0  0  0  0  0  0
   43.5235  -14.9740    0.0000 O   0  0  0  0  0  0  0  0  0  0  0  0
   43.9354  -15.6800    0.0000 C   0  0  0  0  0  0  0  0  0  0  0  0
   43.5301  -16.3896    0.0000 C   0  0  0  0  0  0  0  0  0  0  0  0
   44.7525  -15.6762    0.0000 O   0  0  0  0  0  0  0  0  0  0  0  0
   45.0746  -14.9202    0.0000 O   0  0  0  0  0  0  0  0  0  0  0  0
   39.8541  -14.0412    0.0000 C   0  0  0  0  0  0  0  0  0  0  0  0
   39.4503  -14.7516    0.0000 C   0  0  0  0  0  0  0  0  0  0  0  0
   39.4407  -13.3362    0.0000 O   0  0  0  0  0  0  0  0  0  0  0  0
   42.1273  -14.4024    0.0000 O   0  0  0  0  0  0  0  0  0  0  0  0
   42.1225  -15.2171    0.0000 C   0  0  0  0  0  0  0  0  0  0  0  0
   42.8278  -15.6299    0.0000 O   0  0  0  0  0  0  0  0  0  0  0  0
   41.4124  -15.6215    0.0000 C   0  0  0  0  0  0  0  0  0  0  0  0
   38.6330  -14.7521    0.0000 C   0  0  0  0  0  0  0  0  0  0  0  0
   38.2293  -15.4618    0.0000 C   0  0  0  0  0  0  0  0  0  0  0  0
   38.6427  -16.1677    0.0000 C   0  0  0  0  0  0  0  0  0  0  0  0
   39.4641  -16.1595    0.0000 C   0  0  0  0  0  0  0  0  0  0  0  0
   39.8641  -15.4493    0.0000 C   0  0  0  0  0  0  0  0  0  0  0  0
   42.7122  -16.3905    0.0000 C   0  0  0  0  0  0  0  0  0  0  0  0
   42.3070  -17.0992    0.0000 C   0  0  0  0  0  0  0  0  0  0  0  0
   42.7189  -17.8060    0.0000 C   0  0  0  0  0  0  0  0  0  0  0  0
   43.5403  -17.7995    0.0000 C   0  0  0  0  0  0  0  0  0  0  0  0
   43.9418  -17.0902    0.0000 C   0  0  0  0  0  0  0  0  0  0  0  0
   41.4374  -10.7225    0.0000 C   0  0  0  0  0  0  0  0  0  0  0  0
   40.7262  -10.3200    0.0000 C   0  0  0  0  0  0  0  0  0  0  0  0
   42.1416  -10.3080    0.0000 O   0  0  0  0  0  0  0  0  0  0  0  0
   39.7783  -12.6478    0.0000 C   0  0  0  0  0  0  0  0  0  0  0  0
  2  1  1  0
  3  2  1  0
  4  6  1  0
  6  7  1  0
  7  8  1  0
  8  2  1  0
  2  9  1  0
  9  5  2  0
 16 11  1  0
 11 10  1  0
 10 12  1  0
 12 15  1  0
 12 13  1  1
 16 14  1  1
 15 16  1  0
 16 17  1  0
 15 18  1  1
 18  4  1  0
  4 19  2  0
  5 20  1  0
 20 17  1  0
 17 21  2  0
 20 22  1  1
  8 23  2  0
  6 24  1  1
 24 25  1  0
 25 26  1  0
 25 27  2  0
  7 28  1  6
 13 29  1  0
 29 30  1  0
 29 31  2  0
 18 32  1  6
 32 33  1  0
 33 34  2  0
 33 35  1  0
 30 36  2  0
 36 37  1  0
 37 38  2  0
 38 39  1  0
 39 40  2  0
 40 30  1  0
 26 41  2  0
 41 42  1  0
 42 43  2  0
 43 44  1  0
 44 45  2  0
 45 26  1  0
 14 46  1  0
 46 47  1  0
 46 48  2  0
 10 49  1  1
M  END
>  <Curated_InChIs>  (176) 
InChI=1S/C38H42O11/c1-21-18-19-37(6,7)34(43)29(41)32(48-36(45)27-16-12-9-13-17-27)23(3)31(46-24(4)39)28-30(47-35(44)26-14-10-8-11-15-26)22(2)20-38(28,33(21)42)49-25(5)40/h8-19,21-22,28-32,41H,3,20H2,1-2,4-7H3

>  <threshold>  (176) 
5

>  <pchembl>  (176) 
5.02

>  <Classification>  (176) 
1

>  <source>  (176) 
chembl_28

>  <SMILES>  (176) 
C=C1[C@H](OC(=O)c2ccccc2)[C@@H](O)C(=O)C(C)(C)/C=C/[C@H](C)C(=O)[C@@]2(OC(C)=O)C[C@H](C)[C@H](OC(=O)c3ccccc3)[C@@H]2[C@H]1OC(C)=O

>  <InChIKey>  (176) 
OZUPTZLNGMVQKO-SLDWSQBHSA-N

$$$$

     RDKit          2D

 34 36  0  0  0  0  0  0  0  0999 V2000
    3.1418   -3.2062    0.0000 C   0  0  0  0  0  0  0  0  0  0  0  0
    3.8577   -3.6187    0.0000 C   0  0  0  0  0  0  0  0  0  0  0  0
    4.5693   -3.2062    0.0000 C   0  0  0  0  0  0  0  0  0  0  0  0
    3.1418   -2.3812    0.0000 O   0  0  0  0  0  0  0  0  0  0  0  0
    2.4259   -3.6187    0.0000 C   0  0  0  0  0  0  0  0  0  0  0  0
    2.4259   -4.4437    0.0000 C   0  0  0  0  0  0  0  0  0  0  0  0
    1.7142   -4.8562    0.0000 C   0  0  0  0  0  0  0  0  0  0  0  0
    0.9983   -4.4437    0.0000 C   0  0  0  0  0  0  0  0  0  0  0  0
    0.9983   -3.6187    0.0000 C   0  0  0  0  0  0  0  0  0  0  0  0
    1.7142   -3.2062    0.0000 C   0  0  0  0  0  0  0  0  0  0  0  0
    5.2852   -3.6187    0.0000 C   0  0  0  0  0  0  0  0  0  0  0  0
    5.2812   -4.4439    0.0000 C   0  0  0  0  0  0  0  0  0  0  0  0
    5.9962   -4.8563    0.0000 C   0  0  0  0  0  0  0  0  0  0  0  0
    6.7123   -4.4426    0.0000 C   0  0  0  0  0  0  0  0  0  0  0  0
    6.7090   -3.6120    0.0000 C   0  0  0  0  0  0  0  0  0  0  0  0
    5.9933   -3.2034    0.0000 C   0  0  0  0  0  0  0  0  0  0  0  0
    7.4216   -3.1965    0.0000 C   0  0  0  0  0  0  0  0  0  0  0  0
    8.1379   -3.6059    0.0000 C   0  0  0  0  0  0  0  0  0  0  0  0
    8.8505   -3.1903    0.0000 C   0  0  0  0  0  0  0  0  0  0  0  0
    9.5668   -3.5996    0.0000 C   0  0  0  0  0  0  0  0  0  0  0  0
    8.8469   -2.3653    0.0000 O   0  0  0  0  0  0  0  0  0  0  0  0
    9.5673   -4.4219    0.0000 C   0  0  0  0  0  0  0  0  0  0  0  0
   10.2828   -4.8312    0.0000 C   0  0  0  0  0  0  0  0  0  0  0  0
   10.9964   -4.4154    0.0000 C   0  0  0  0  0  0  0  0  0  0  0  0
   10.9902   -3.5862    0.0000 C   0  0  0  0  0  0  0  0  0  0  0  0
   10.2741   -3.1807    0.0000 C   0  0  0  0  0  0  0  0  0  0  0  0
    1.7153   -5.6812    0.0000 O   0  0  0  0  0  0  0  0  0  0  0  0
    1.0014   -6.0946    0.0000 C   0  0  0  0  0  0  0  0  0  0  0  0
    0.2841   -4.8565    0.0000 O   0  0  0  0  0  0  0  0  0  0  0  0
   -0.4361   -4.4443    0.0000 C   0  0  0  0  0  0  0  0  0  0  0  0
   11.7132   -4.8239    0.0000 O   0  0  0  0  0  0  0  0  0  0  0  0
   11.7179   -5.6489    0.0000 C   0  0  0  0  0  0  0  0  0  0  0  0
   10.2860   -5.6562    0.0000 O   0  0  0  0  0  0  0  0  0  0  0  0
    9.5731   -6.0714    0.0000 C   0  0  0  0  0  0  0  0  0  0  0  0
  1  2  1  0
  2  3  2  0
  1  4  2  0
  5  6  2  0
  6  7  1  0
  7  8  2  0
  8  9  1  0
  9 10  2  0
  5 10  1  0
  1  5  1  0
  3 11  1  0
 11 12  2  0
 12 13  1  0
 13 14  2  0
 14 15  1  0
 15 16  2  0
 16 11  1  0
 15 17  1  0
 17 18  2  0
 18 19  1  0
 19 20  1  0
 19 21  2  0
 20 22  2  0
 22 23  1  0
 23 24  2  0
 24 25  1  0
 25 26  2  0
 26 20  1  0
  7 27  1  0
 27 28  1  0
  8 29  1  0
 29 30  1  0
 24 31  1  0
 31 32  1  0
 23 33  1  0
 33 34  1  0
M  END
>  <Curated_InChIs>  (177) 
InChI=1S/C28H26O6/c1-31-25-14-10-21(17-27(25)33-3)23(29)12-8-19-6-5-7-20(16-19)9-13-24(30)22-11-15-26(32-2)28(18-22)34-4/h5-18H,1-4H3

>  <threshold>  (177) 
5

>  <pchembl>  (177) 
6.85, 6.86

>  <Classification>  (177) 
1

>  <source>  (177) 
chembl_28

>  <SMILES>  (177) 
COc1ccc(C(=O)/C=C/c2cccc(/C=C/C(=O)c3ccc(OC)c(OC)c3)c2)cc1OC

>  <InChIKey>  (177) 
PENJNWUNTMPZMH-QHKWOANTSA-N

$$$$

     RDKit          2D

 53 60  0  0  0  0  0  0  0  0999 V2000
   15.4337  -30.0051    0.0000 C   0  0  0  0  0  0  0  0  0  0  0  0
   15.6828  -29.2259    0.0000 O   0  0  0  0  0  0  0  0  0  0  0  0
   15.9819  -30.6076    0.0000 O   0  0  0  0  0  0  0  0  0  0  0  0
   16.4800  -29.0535    0.0000 C   0  0  0  0  0  0  0  0  0  0  0  0
   16.7289  -28.2745    0.0000 C   0  0  0  0  0  0  0  0  0  0  0  0
   17.5003  -28.0148    0.0000 C   0  0  0  0  0  0  0  0  0  0  0  0
   17.4985  -27.1978    0.0000 C   0  0  0  0  0  0  0  0  0  0  0  0
   16.7194  -26.9486    0.0000 C   0  0  0  0  0  0  0  0  0  0  0  0
   16.2442  -27.6114    0.0000 C   0  0  0  0  0  0  0  0  0  0  0  0
   18.1583  -26.7127    0.0000 N   0  0  0  0  0  0  0  0  0  0  0  0
   18.9291  -25.6360    0.0000 N   0  0  0  0  0  0  0  0  0  0  0  0
   18.1497  -25.8923    0.0000 C   0  0  0  0  0  0  0  0  0  0  0  0
   19.4099  -26.2959    0.0000 C   0  0  0  0  0  0  0  0  0  0  0  0
   18.9353  -26.9530    0.0000 C   0  0  0  0  0  0  0  0  0  0  0  0
   19.2667  -27.6953    0.0000 N   0  0  0  0  0  0  0  0  0  0  0  0
   20.0763  -27.7785    0.0000 C   0  0  0  0  0  0  0  0  0  0  0  0
   20.5532  -27.1141    0.0000 N   0  0  0  0  0  0  0  0  0  0  0  0
   20.2179  -26.3757    0.0000 C   0  0  0  0  0  0  0  0  0  0  0  0
   20.6910  -25.7114    0.0000 N   0  0  0  0  0  0  0  0  0  0  0  0
   21.5065  -25.7911    0.0000 C   0  0  0  0  0  0  0  0  0  0  0  0
   20.4130  -28.5229    0.0000 N   0  0  0  0  0  0  0  0  0  0  0  0
   22.1691  -26.2599    0.0000 C   0  0  0  0  0  0  0  0  0  0  0  0
   22.2485  -25.4444    0.0000 C   0  0  0  0  0  0  0  0  0  0  0  0
    6.4627  -23.9051    0.0000 N   0  0  0  0  0  0  0  0  0  0  0  0
    6.4644  -24.7259    0.0000 C   0  0  0  0  0  0  0  0  0  0  0  0
    7.1672  -25.1309    0.0000 N   0  0  0  0  0  0  0  0  0  0  0  0
    7.1699  -23.4960    0.0000 C   0  0  0  0  0  0  0  0  0  0  0  0
    7.8800  -23.8997    0.0000 C   0  0  0  0  0  0  0  0  0  0  0  0
    7.8853  -24.7260    0.0000 C   0  0  0  0  0  0  0  0  0  0  0  0
    8.6685  -24.9725    0.0000 N   0  0  0  0  0  0  0  0  0  0  0  0
    9.1446  -24.3057    0.0000 C   0  0  0  0  0  0  0  0  0  0  0  0
    8.6594  -23.6436    0.0000 N   0  0  0  0  0  0  0  0  0  0  0  0
    8.9235  -25.7533    0.0000 C   0  0  0  0  0  0  0  0  0  0  0  0
    8.4505  -26.4168    0.0000 C   0  0  0  0  0  0  0  0  0  0  0  0
    8.9327  -27.0716    0.0000 C   0  0  0  0  0  0  0  0  0  0  0  0
    9.7129  -26.8182    0.0000 C   0  0  0  0  0  0  0  0  0  0  0  0
    9.7056  -26.0012    0.0000 C   0  0  0  0  0  0  0  0  0  0  0  0
    7.1652  -22.6788    0.0000 N   0  0  0  0  0  0  0  0  0  0  0  0
    6.4597  -22.2736    0.0000 C   0  0  0  0  0  0  0  0  0  0  0  0
    6.0432  -21.5626    0.0000 C   0  0  0  0  0  0  0  0  0  0  0  0
    5.6396  -22.2736    0.0000 C   0  0  0  0  0  0  0  0  0  0  0  0
    5.7534  -25.1337    0.0000 N   0  0  0  0  0  0  0  0  0  0  0  0
    8.6859  -27.8512    0.0000 C   0  0  0  0  0  0  0  0  0  0  0  0
    9.2348  -28.4569    0.0000 O   0  0  0  0  0  0  0  0  0  0  0  0
   10.0360  -28.2832    0.0000 C   0  0  0  0  0  0  0  0  0  0  0  0
   10.5892  -28.8849    0.0000 C   0  0  0  0  0  0  0  0  0  0  0  0
   10.2838  -27.5038    0.0000 O   0  0  0  0  0  0  0  0  0  0  0  0
   11.3861  -28.7111    0.0000 C   0  0  0  0  0  0  0  0  0  0  0  0
   11.9352  -29.3169    0.0000 C   0  0  0  0  0  0  0  0  0  0  0  0
   12.7362  -29.1392    0.0000 C   0  0  0  0  0  0  0  0  0  0  0  0
   13.2853  -29.7450    0.0000 C   0  0  0  0  0  0  0  0  0  0  0  0
   14.0823  -29.5712    0.0000 C   0  0  0  0  0  0  0  0  0  0  0  0
   14.6313  -30.1728    0.0000 C   0  0  0  0  0  0  0  0  0  0  0  0
  1  2  1  0
  1  3  2  0
  2  4  1  0
  5  4  1  6
  5  6  1  0
  6  7  1  0
  7  8  1  0
  8  9  2  0
  9  5  1  0
  7 10  1  6
 10 14  1  0
 13 11  1  0
 11 12  2  0
 12 10  1  0
 13 14  2  0
 14 15  1  0
 15 16  2  0
 16 17  1  0
 17 18  2  0
 18 13  1  0
 18 19  1  0
 19 20  1  0
 16 21  1  0
 22 20  1  0
 23 22  1  0
 20 23  1  0
 24 25  2  0
 25 26  1  0
 26 29  2  0
 28 27  2  0
 27 24  1  0
 28 29  1  0
 29 30  1  0
 30 31  1  0
 31 32  2  0
 32 28  1  0
 33 34  1  0
 34 35  1  0
 35 36  1  0
 36 37  2  0
 37 33  1  0
 33 30  1  1
 27 38  1  0
 38 39  1  0
 40 39  1  0
 41 40  1  0
 39 41  1  0
 25 42  1  0
 35 43  1  1
 43 44  1  0
 44 45  1  0
 45 46  1  0
 45 47  2  0
 46 48  1  0
 48 49  1  0
 49 50  1  0
 50 51  1  0
 51 52  1  0
 52 53  1  0
 53  1  1  0
M  END
>  <Curated_InChIs>  (178) 
InChI=1S/C37H48N12O4/c38-36-44-32(42-24-10-11-24)30-34(46-36)48(20-40-30)26-14-8-22(16-26)18-52-28(50)6-4-2-1-3-5-7-29(51)53-19-23-9-15-27(17-23)49-21-41-31-33(43-25-12-13-25)45-37(39)47-35(31)49/h8-9,14-15,20-27H,1-7,10-13,16-19H2,(H3,38,42,44,46)(H3,39,43,45,47)

>  <threshold>  (178) 
5

>  <pchembl>  (178) 
5.42, 5.58

>  <Classification>  (178) 
1

>  <source>  (178) 
chembl_28

>  <SMILES>  (178) 
Nc1nc(NC2CC2)c2ncn([C@H]3C=C[C@@H](COC(=O)CCCCCCCC(=O)OC[C@@H]4C=C[C@H](n5cnc6c(NC7CC7)nc(N)nc65)C4)C3)c2n1

>  <InChIKey>  (178) 
PWPAWKDESHZZDQ-YWUUFRFPSA-N

$$$$

     RDKit          2D

 36 40  0  0  0  0  0  0  0  0999 V2000
   24.3797  -28.0894    0.0000 C   0  0  0  0  0  0  0  0  0  0  0  0
   18.7180  -27.2646    0.0000 C   0  0  0  0  0  0  0  0  0  0  0  0
   18.7169  -28.0841    0.0000 C   0  0  0  0  0  0  0  0  0  0  0  0
   19.4249  -28.4931    0.0000 C   0  0  0  0  0  0  0  0  0  0  0  0
   19.4232  -26.8557    0.0000 C   0  0  0  0  0  0  0  0  0  0  0  0
   20.1318  -27.2610    0.0000 C   0  0  0  0  0  0  0  0  0  0  0  0
   20.1306  -28.0816    0.0000 C   0  0  0  0  0  0  0  0  0  0  0  0
   20.8368  -28.4907    0.0000 C   0  0  0  0  0  0  0  0  0  0  0  0
   21.5487  -28.0836    0.0000 C   0  0  0  0  0  0  0  0  0  0  0  0
   21.5499  -27.2630    0.0000 N   0  0  0  0  0  0  0  0  0  0  0  0
   20.8391  -26.8494    0.0000 C   0  0  0  0  0  0  0  0  0  0  0  0
   22.2586  -26.8561    0.0000 C   0  0  0  0  0  0  0  0  0  0  0  0
   22.9653  -27.2664    0.0000 C   0  0  0  0  0  0  0  0  0  0  0  0
   18.0102  -26.8561    0.0000 O   0  0  0  0  0  0  0  0  0  0  0  0
   17.3026  -27.2649    0.0000 C   0  0  0  0  0  0  0  0  0  0  0  0
   18.0089  -28.4921    0.0000 O   0  0  0  0  0  0  0  0  0  0  0  0
   17.3015  -28.0830    0.0000 C   0  0  0  0  0  0  0  0  0  0  0  0
   22.9617  -28.0829    0.0000 C   0  0  0  0  0  0  0  0  0  0  0  0
   23.6675  -28.4931    0.0000 C   0  0  0  0  0  0  0  0  0  0  0  0
   24.3766  -27.2647    0.0000 C   0  0  0  0  0  0  0  0  0  0  0  0
   23.6701  -26.8582    0.0000 C   0  0  0  0  0  0  0  0  0  0  0  0
   25.0832  -26.8543    0.0000 C   0  0  0  0  0  0  0  0  0  0  0  0
   25.7920  -27.2610    0.0000 O   0  0  0  0  0  0  0  0  0  0  0  0
   26.4983  -26.8499    0.0000 C   0  0  0  0  0  0  0  0  0  0  0  0
   27.2067  -27.2573    0.0000 C   0  0  0  0  0  0  0  0  0  0  0  0
   27.1959  -25.6229    0.0000 C   0  0  0  0  0  0  0  0  0  0  0  0
   26.4931  -26.0356    0.0000 C   0  0  0  0  0  0  0  0  0  0  0  0
   27.9100  -26.0288    0.0000 C   0  0  0  0  0  0  0  0  0  0  0  0
   27.9085  -26.8439    0.0000 C   0  0  0  0  0  0  0  0  0  0  0  0
   28.6097  -27.2506    0.0000 O   0  0  0  0  0  0  0  0  0  0  0  0
   29.3170  -26.8466    0.0000 C   0  0  0  0  0  0  0  0  0  0  0  0
   29.3186  -26.0315    0.0000 C   0  0  0  0  0  0  0  0  0  0  0  0
   28.6128  -25.6203    0.0000 C   0  0  0  0  0  0  0  0  0  0  0  0
   30.0234  -27.2575    0.0000 O   0  0  0  0  0  0  0  0  0  0  0  0
   30.0275  -25.6249    0.0000 C   0  0  0  0  0  0  0  0  0  0  0  0
   28.6132  -24.8031    0.0000 C   0  0  0  0  0  0  0  0  0  0  0  0
  2  3  2  0
  3  4  1  0
  4  7  2  0
  6  5  2  0
  5  2  1  0
  6  7  1  0
  6 11  1  0
  7  8  1  0
  8  9  1  0
  9 10  1  0
 10 11  1  0
 10 12  1  0
 12 13  1  0
  2 14  1  0
 14 15  1  0
  3 16  1  0
 16 17  1  0
 13 18  2  0
 18 19  1  0
 19  1  2  0
  1 20  1  0
 20 21  2  0
 21 13  1  0
 20 22  1  0
 22 23  1  0
 23 24  1  0
 24 25  2  0
 25 29  1  0
 28 26  1  0
 26 27  2  0
 27 24  1  0
 28 29  2  0
 28 33  1  0
 29 30  1  0
 30 31  1  0
 31 32  1  0
 32 33  2  0
 31 34  2  0
 32 35  1  0
 33 36  1  0
M  END
>  <Curated_InChIs>  (179) 
InChI=1S/C30H31NO5/c1-19-20(2)30(32)36-27-15-25(8-9-26(19)27)35-18-22-7-5-6-21(12-22)16-31-11-10-23-13-28(33-3)29(34-4)14-24(23)17-31/h5-9,12-15H,10-11,16-18H2,1-4H3

>  <threshold>  (179) 
5

>  <pchembl>  (179) 
6.8

>  <Classification>  (179) 
1

>  <source>  (179) 
chembl_28

>  <SMILES>  (179) 
COc1cc2c(cc1OC)CN(Cc1cccc(COc3ccc4c(C)c(C)c(=O)oc4c3)c1)CC2

>  <InChIKey>  (179) 
PYOUXIPBRMKBKP-UHFFFAOYSA-N

$$$$

     RDKit          2D

 27 31  0  0  0  0  0  0  0  0999 V2000
    2.4171   -8.7332    0.0000 C   0  0  0  0  0  0  0  0  0  0  0  0
    2.4160   -9.5527    0.0000 C   0  0  0  0  0  0  0  0  0  0  0  0
    3.1240   -9.9617    0.0000 C   0  0  0  0  0  0  0  0  0  0  0  0
    3.1222   -8.3243    0.0000 C   0  0  0  0  0  0  0  0  0  0  0  0
    3.8309   -8.7296    0.0000 C   0  0  0  0  0  0  0  0  0  0  0  0
    3.8311   -9.5528    0.0000 C   0  0  0  0  0  0  0  0  0  0  0  0
    4.6141   -9.8069    0.0000 N   0  0  0  0  0  0  0  0  0  0  0  0
    4.6137   -8.4750    0.0000 C   0  0  0  0  0  0  0  0  0  0  0  0
    5.0979   -9.1421    0.0000 C   0  0  0  0  0  0  0  0  0  0  0  0
    5.9132   -9.0569    0.0000 C   0  0  0  0  0  0  0  0  0  0  0  0
    6.2506   -8.3055    0.0000 N   0  0  0  0  0  0  0  0  0  0  0  0
    5.7665   -7.6384    0.0000 C   0  0  0  0  0  0  0  0  0  0  0  0
    4.9448   -7.7226    0.0000 C   0  0  0  0  0  0  0  0  0  0  0  0
    7.0635   -8.2216    0.0000 C   0  0  0  0  0  0  0  0  0  0  0  0
    7.5426   -8.8836    0.0000 O   0  0  0  0  0  0  0  0  0  0  0  0
    7.3973   -7.4757    0.0000 C   0  0  0  0  0  0  0  0  0  0  0  0
    8.2104   -7.3958    0.0000 C   0  0  0  0  0  0  0  0  0  0  0  0
    8.5442   -6.6507    0.0000 C   0  0  0  0  0  0  0  0  0  0  0  0
    8.0649   -5.9877    0.0000 C   0  0  0  0  0  0  0  0  0  0  0  0
    7.2481   -6.0747    0.0000 C   0  0  0  0  0  0  0  0  0  0  0  0
    6.9181   -6.8200    0.0000 C   0  0  0  0  0  0  0  0  0  0  0  0
    6.3923   -9.7189    0.0000 C   0  0  0  0  0  0  0  0  0  0  0  0
    6.0577  -10.4619    0.0000 C   0  0  0  0  0  0  0  0  0  0  0  0
    6.5360  -11.1235    0.0000 C   0  0  0  0  0  0  0  0  0  0  0  0
    7.3498  -11.0400    0.0000 C   0  0  0  0  0  0  0  0  0  0  0  0
    7.6829  -10.2891    0.0000 C   0  0  0  0  0  0  0  0  0  0  0  0
    7.2025   -9.6306    0.0000 C   0  0  0  0  0  0  0  0  0  0  0  0
  1  2  2  0
  2  3  1  0
  3  6  2  0
  5  4  2  0
  4  1  1  0
  5  6  1  0
  6  7  1  0
  7  9  1  0
  8  5  1  0
  8  9  2  0
  8 13  1  0
  9 10  1  0
 10 11  1  0
 11 12  1  0
 12 13  1  0
 11 14  1  0
 14 15  2  0
 14 16  1  0
 16 17  2  0
 17 18  1  0
 18 19  2  0
 19 20  1  0
 20 21  2  0
 21 16  1  0
 10 22  1  0
 22 23  2  0
 23 24  1  0
 24 25  2  0
 25 26  1  0
 26 27  2  0
 27 22  1  0
M  END
>  <Curated_InChIs>  (180) 
InChI=1S/C24H20N2O/c27-24(18-11-5-2-6-12-18)26-16-15-20-19-13-7-8-14-21(19)25-22(20)23(26)17-9-3-1-4-10-17/h1-14,23,25H,15-16H2

>  <threshold>  (180) 
5

>  <pchembl>  (180) 
5.1

>  <Classification>  (180) 
1

>  <source>  (180) 
chembl_28

>  <SMILES>  (180) 
O=C(c1ccccc1)N1CCc2c([nH]c3ccccc23)C1c1ccccc1

>  <InChIKey>  (180) 
PZQCDTFVPWETSB-UHFFFAOYSA-N

$$$$

     RDKit          2D

 36 41  0  0  0  0  0  0  0  0999 V2000
   17.5239   -4.4683    0.0000 C   0  0  0  0  0  0  0  0  0  0  0  0
   18.2336   -4.0589    0.0000 N   0  0  0  0  0  0  0  0  0  0  0  0
   18.2308   -3.2362    0.0000 C   0  0  0  0  0  0  0  0  0  0  0  0
   17.5222   -2.8310    0.0000 N   0  0  0  0  0  0  0  0  0  0  0  0
   18.9339   -2.8263    0.0000 C   0  0  0  0  0  0  0  0  0  0  0  0
   19.6434   -3.2339    0.0000 C   0  0  0  0  0  0  0  0  0  0  0  0
   20.3491   -2.8233    0.0000 N   0  0  0  0  0  0  0  0  0  0  0  0
   20.3465   -2.0053    0.0000 C   0  0  0  0  0  0  0  0  0  0  0  0
   19.6323   -1.5995    0.0000 C   0  0  0  0  0  0  0  0  0  0  0  0
   18.9295   -2.0124    0.0000 C   0  0  0  0  0  0  0  0  0  0  0  0
   16.8159   -4.0594    0.0000 C   0  0  0  0  0  0  0  0  0  0  0  0
   16.8171   -3.2429    0.0000 C   0  0  0  0  0  0  0  0  0  0  0  0
   16.0409   -2.9893    0.0000 S   0  0  0  0  0  0  0  0  0  0  0  0
   16.0390   -4.3105    0.0000 C   0  0  0  0  0  0  0  0  0  0  0  0
   15.5580   -3.6461    0.0000 C   0  0  0  0  0  0  0  0  0  0  0  0
   14.7467   -3.7299    0.0000 C   0  0  0  0  0  0  0  0  0  0  0  0
   14.4099   -4.4771    0.0000 C   0  0  0  0  0  0  0  0  0  0  0  0
   14.8909   -5.1415    0.0000 C   0  0  0  0  0  0  0  0  0  0  0  0
   15.7085   -5.0587    0.0000 C   0  0  0  0  0  0  0  0  0  0  0  0
   13.5970   -4.5600    0.0000 C   0  0  0  0  0  0  0  0  0  0  0  0
   17.5237   -5.2855    0.0000 N   0  0  0  0  0  0  0  0  0  0  0  0
   16.8147   -5.6878    0.0000 C   0  0  0  0  0  0  0  0  0  0  0  0
   16.8125   -6.5014    0.0000 C   0  0  0  0  0  0  0  0  0  0  0  0
   17.5183   -6.9140    0.0000 N   0  0  0  0  0  0  0  0  0  0  0  0
   18.2279   -6.5068    0.0000 C   0  0  0  0  0  0  0  0  0  0  0  0
   18.2318   -5.6870    0.0000 C   0  0  0  0  0  0  0  0  0  0  0  0
   17.5150   -7.7312    0.0000 C   0  0  0  0  0  0  0  0  0  0  0  0
   16.8057   -8.1369    0.0000 C   0  0  0  0  0  0  0  0  0  0  0  0
   18.2211   -8.1426    0.0000 C   0  0  0  0  0  0  0  0  0  0  0  0
   18.2178   -8.9598    0.0000 N   0  0  0  0  0  0  0  0  0  0  0  0
   18.9304   -7.7369    0.0000 O   0  0  0  0  0  0  0  0  0  0  0  0
   16.1018   -7.7240    0.0000 C   0  0  0  0  0  0  0  0  0  0  0  0
   15.3929   -8.1291    0.0000 C   0  0  0  0  0  0  0  0  0  0  0  0
   15.3892   -8.9471    0.0000 C   0  0  0  0  0  0  0  0  0  0  0  0
   16.1002   -9.3584    0.0000 C   0  0  0  0  0  0  0  0  0  0  0  0
   16.8062   -8.9510    0.0000 C   0  0  0  0  0  0  0  0  0  0  0  0
 11  1  1  0
  1  2  2  0
  2  3  1  0
  3  4  2  0
  4 12  1  0
  5  6  2  0
  6  7  1  0
  7  8  2  0
  8  9  1  0
  9 10  2  0
 10  5  1  0
  3  5  1  0
 11 12  2  0
 12 13  1  0
 13 15  1  0
 14 11  1  0
 14 15  2  0
 14 19  1  0
 15 16  1  0
 16 17  1  0
 17 18  1  0
 18 19  1  0
 17 20  1  0
  1 21  1  0
 21 22  1  0
 21 26  1  0
 22 23  1  0
 23 24  1  0
 24 25  1  0
 25 26  1  0
 24 27  1  0
 27 28  1  0
 27 29  1  0
 29 30  1  0
 29 31  2  0
 28 32  2  0
 32 33  1  0
 33 34  2  0
 34 35  1  0
 35 36  2  0
 36 28  1  0
M  END
>  <Curated_InChIs>  (181) 
InChI=1S/C28H30N6OS/c1-18-9-10-21-22(16-18)36-28-23(21)27(31-26(32-28)20-8-5-11-30-17-20)34-14-12-33(13-15-34)24(25(29)35)19-6-3-2-4-7-19/h2-8,11,17-18,24H,9-10,12-16H2,1H3,(H2,29,35)

>  <threshold>  (181) 
5

>  <pchembl>  (181) 
5.76

>  <Classification>  (181) 
1

>  <source>  (181) 
chembl_28

>  <SMILES>  (181) 
CC1CCc2c(sc3nc(-c4cccnc4)nc(N4CCN(C(C(N)=O)c5ccccc5)CC4)c23)C1

>  <InChIKey>  (181) 
QAWHHEOBNCCSJP-UHFFFAOYSA-N

$$$$

     RDKit          2D

 33 37  0  0  0  0  0  0  0  0999 V2000
   20.6981  -23.5582    0.0000 C   0  0  0  0  0  0  0  0  0  0  0  0
   20.6981  -24.3754    0.0000 C   0  0  0  0  0  0  0  0  0  0  0  0
   21.4033  -24.7799    0.0000 O   0  0  0  0  0  0  0  0  0  0  0  0
   21.4033  -23.1455    0.0000 C   0  0  0  0  0  0  0  0  0  0  0  0
   22.1086  -23.5582    0.0000 C   0  0  0  0  0  0  0  0  0  0  0  0
   22.1070  -24.3736    0.0000 C   0  0  0  0  0  0  0  0  0  0  0  0
   22.8112  -24.7809    0.0000 C   0  0  0  0  0  0  0  0  0  0  0  0
   23.5175  -24.3739    0.0000 C   0  0  0  0  0  0  0  0  0  0  0  0
   23.5152  -23.5554    0.0000 C   0  0  0  0  0  0  0  0  0  0  0  0
   22.8104  -23.1518    0.0000 C   0  0  0  0  0  0  0  0  0  0  0  0
   21.4033  -22.3283    0.0000 O   0  0  0  0  0  0  0  0  0  0  0  0
   19.9891  -23.1517    0.0000 O   0  0  0  0  0  0  0  0  0  0  0  0
   19.2826  -23.5624    0.0000 C   0  0  0  0  0  0  0  0  0  0  0  0
   18.5737  -23.1558    0.0000 C   0  0  0  0  0  0  0  0  0  0  0  0
   17.8672  -23.5665    0.0000 N   0  0  0  0  0  0  0  0  0  0  0  0
   18.5713  -22.3387    0.0000 O   0  0  0  0  0  0  0  0  0  0  0  0
   17.1583  -23.1600    0.0000 C   0  0  0  0  0  0  0  0  0  0  0  0
   17.1601  -22.3438    0.0000 C   0  0  0  0  0  0  0  0  0  0  0  0
   16.4521  -21.9374    0.0000 C   0  0  0  0  0  0  0  0  0  0  0  0
   16.4582  -23.5723    0.0000 C   0  0  0  0  0  0  0  0  0  0  0  0
   15.7496  -23.1695    0.0000 C   0  0  0  0  0  0  0  0  0  0  0  0
   15.7409  -22.3473    0.0000 C   0  0  0  0  0  0  0  0  0  0  0  0
   14.9563  -22.1014    0.0000 C   0  0  0  0  0  0  0  0  0  0  0  0
   14.4799  -22.7718    0.0000 O   0  0  0  0  0  0  0  0  0  0  0  0
   14.9703  -23.4318    0.0000 C   0  0  0  0  0  0  0  0  0  0  0  0
   14.6956  -21.3269    0.0000 O   0  0  0  0  0  0  0  0  0  0  0  0
   19.9919  -24.7855    0.0000 C   0  0  0  0  0  0  0  0  0  0  0  0
   19.2833  -24.3762    0.0000 C   0  0  0  0  0  0  0  0  0  0  0  0
   18.5767  -24.7852    0.0000 C   0  0  0  0  0  0  0  0  0  0  0  0
   18.5774  -25.6032    0.0000 C   0  0  0  0  0  0  0  0  0  0  0  0
   19.2907  -26.0106    0.0000 C   0  0  0  0  0  0  0  0  0  0  0  0
   19.9944  -25.5994    0.0000 C   0  0  0  0  0  0  0  0  0  0  0  0
   20.7038  -26.0050    0.0000 Cl  0  0  0  0  0  0  0  0  0  0  0  0
  1  2  2  0
  1  4  1  0
  2  3  1  0
  3  6  1  0
  5  4  1  0
  5  6  2  0
  6  7  1  0
  7  8  2  0
  8  9  1  0
  9 10  2  0
 10  5  1  0
  4 11  2  0
  1 12  1  0
 12 13  1  0
 13 14  1  0
 14 15  1  0
 14 16  2  0
 15 17  1  0
 17 18  2  0
 18 19  1  0
 19 22  2  0
 21 20  2  0
 20 17  1  0
 21 22  1  0
 22 23  1  0
 23 24  1  0
 24 25  1  0
 25 21  1  0
 23 26  2  0
 27 28  2  0
 28 29  1  0
 29 30  2  0
 30 31  1  0
 31 32  2  0
 32 27  1  0
  2 27  1  0
 32 33  1  0
M  END
>  <Curated_InChIs>  (182) 
InChI=1S/C25H16ClNO6/c26-19-7-3-1-5-17(19)23-24(22(29)18-6-2-4-8-20(18)33-23)31-13-21(28)27-15-9-10-16-14(11-15)12-32-25(16)30/h1-11H,12-13H2,(H,27,28)

>  <threshold>  (182) 
5

>  <pchembl>  (182) 
5.3

>  <Classification>  (182) 
1

>  <source>  (182) 
chembl_28

>  <SMILES>  (182) 
O=C(COc1c(-c2ccccc2Cl)oc2ccccc2c1=O)Nc1ccc2c(c1)COC2=O

>  <InChIKey>  (182) 
QCKIWMNSBLREPR-UHFFFAOYSA-N

$$$$

     RDKit          2D

 25 28  0  0  0  0  0  0  0  0999 V2000
    5.5280   -6.7821    0.0000 C   0  0  0  0  0  0  0  0  0  0  0  0
    5.5280   -7.6071    0.0000 C   0  0  0  0  0  0  0  0  0  0  0  0
    4.8135   -8.0196    0.0000 C   0  0  0  0  0  0  0  0  0  0  0  0
    4.0991   -7.6071    0.0000 C   0  0  0  0  0  0  0  0  0  0  0  0
    3.3846   -8.0196    0.0000 C   0  0  0  0  0  0  0  0  0  0  0  0
    2.6701   -7.6071    0.0000 C   0  0  0  0  0  0  0  0  0  0  0  0
    2.6701   -6.7821    0.0000 C   0  0  0  0  0  0  0  0  0  0  0  0
    3.3846   -6.3696    0.0000 C   0  0  0  0  0  0  0  0  0  0  0  0
    4.0991   -6.7821    0.0000 C   0  0  0  0  0  0  0  0  0  0  0  0
    4.8135   -6.3696    0.0000 O   0  0  0  0  0  0  0  0  0  0  0  0
    3.3846   -5.5446    0.0000 C   0  0  0  0  0  0  0  0  0  0  0  0
    2.6701   -5.1321    0.0000 C   0  0  0  0  0  0  0  0  0  0  0  0
    1.9556   -5.5446    0.0000 C   0  0  0  0  0  0  0  0  0  0  0  0
    1.9556   -6.3696    0.0000 C   0  0  0  0  0  0  0  0  0  0  0  0
    4.8135   -8.8446    0.0000 O   0  0  0  0  0  0  0  0  0  0  0  0
    6.2425   -6.3696    0.0000 C   0  0  0  0  0  0  0  0  0  0  0  0
    6.2425   -5.5446    0.0000 C   0  0  0  0  0  0  0  0  0  0  0  0
    6.9569   -5.1321    0.0000 C   0  0  0  0  0  0  0  0  0  0  0  0
    7.6714   -5.5446    0.0000 C   0  0  0  0  0  0  0  0  0  0  0  0
    7.6714   -6.3696    0.0000 C   0  0  0  0  0  0  0  0  0  0  0  0
    6.9569   -6.7821    0.0000 C   0  0  0  0  0  0  0  0  0  0  0  0
    8.3859   -5.1321    0.0000 O   0  0  0  0  0  0  0  0  0  0  0  0
    9.1003   -5.5446    0.0000 C   0  0  0  0  0  0  0  0  0  0  0  0
    6.9569   -4.3071    0.0000 O   0  0  0  0  0  0  0  0  0  0  0  0
    7.6714   -3.8946    0.0000 C   0  0  0  0  0  0  0  0  0  0  0  0
  1  2  2  0
  2  3  1  0
  3  4  1  0
  4  5  2  0
  5  6  1  0
  6  7  2  0
  7  8  1  0
  8  9  2  0
  4  9  1  0
  9 10  1  0
  1 10  1  0
 11 12  2  0
 12 13  1  0
 13 14  2  0
  7 14  1  0
  8 11  1  0
  3 15  2  0
 16 17  2  0
 17 18  1  0
 18 19  2  0
 19 20  1  0
 20 21  2  0
 16 21  1  0
 22 23  1  0
 19 22  1  0
 24 25  1  0
 18 24  1  0
  1 16  1  0
M  END
>  <Curated_InChIs>  (183) 
InChI=1S/C21H16O4/c1-23-18-10-8-14(11-20(18)24-2)19-12-17(22)16-9-7-13-5-3-4-6-15(13)21(16)25-19/h3-12H,1-2H3

>  <threshold>  (183) 
5

>  <pchembl>  (183) 
5.4

>  <Classification>  (183) 
1

>  <source>  (183) 
chembl_28

>  <SMILES>  (183) 
COc1ccc(-c2cc(=O)c3ccc4ccccc4c3o2)cc1OC

>  <InChIKey>  (183) 
QDZQDIUUJDAORK-UHFFFAOYSA-N

$$$$

     RDKit          2D

 50 55  0  0  0  0  0  0  0  0999 V2000
    0.6039    1.4213    0.0000 C   0  0  0  0  0  0  0  0  0  0  0  0
    0.2956    2.8790    0.0000 C   0  0  0  0  0  0  0  0  0  0  0  0
   -1.1279    3.3753    0.0000 C   0  0  0  0  0  0  0  0  0  0  0  0
   -0.5051    0.4304    0.0000 C   0  0  0  0  0  0  0  0  0  0  0  0
   -1.9182    0.8777    0.0000 C   0  0  0  0  0  0  0  0  0  0  0  0
   -2.2389    2.3942    0.0000 C   0  0  0  0  0  0  0  0  0  0  0  0
   -3.3710    1.3677    0.0000 C   0  0  0  0  0  0  0  0  0  0  0  0
   -5.2691    0.9664    0.0000 C   0  0  0  0  0  0  0  0  0  0  0  0
   -4.3384   -0.1962    0.0000 C   0  0  0  0  0  0  0  0  0  0  0  0
   -2.8340   -0.2052    0.0000 C   0  0  0  0  0  0  0  0  0  0  0  0
   -0.1886   -1.0370    0.0000 O   0  0  0  0  0  0  0  0  0  0  0  0
    0.9963   -1.9582    0.0000 C   0  0  0  0  0  0  0  0  0  0  0  0
    0.8317   -3.1468    0.0000 C   0  0  0  0  0  0  0  0  0  0  0  0
    1.9228   -1.5820    0.0000 O   0  0  0  0  0  0  0  0  0  0  0  0
   -2.1761   -1.5570    0.0000 O   0  0  0  0  0  0  0  0  0  0  0  0
   -0.8058   -2.1690    0.0000 C   0  0  0  0  0  0  0  0  0  0  0  0
    0.4100   -1.2890    0.0000 C   0  0  0  0  0  0  0  0  0  0  0  0
   -0.7027   -3.1637    0.0000 O   0  0  0  0  0  0  0  0  0  0  0  0
    0.7785    0.1650    0.0000 C   0  0  0  0  0  0  0  0  0  0  0  0
    2.2220    0.5729    0.0000 C   0  0  0  0  0  0  0  0  0  0  0  0
    3.2970   -0.4732    0.0000 C   0  0  0  0  0  0  0  0  0  0  0  0
    2.9286   -1.9272    0.0000 C   0  0  0  0  0  0  0  0  0  0  0  0
    1.4851   -2.3351    0.0000 C   0  0  0  0  0  0  0  0  0  0  0  0
   -1.5853   -0.2752    0.0000 C   0  0  0  0  0  0  0  0  0  0  0  0
   -5.4220   -1.2377    0.0000 O   0  0  0  0  0  0  0  0  0  0  0  0
   -2.2719    3.7374    0.0000 C   0  0  0  0  0  0  0  0  0  0  0  0
   -3.5312    3.0919    0.0000 O   0  0  0  0  0  0  0  0  0  0  0  0
   -4.9011    2.4649    0.0000 C   0  0  0  0  0  0  0  0  0  0  0  0
   -3.0177   -0.0965    0.0000 O   0  0  0  0  0  0  0  0  0  0  0  0
   -6.0128    2.0131    0.0000 C   0  0  0  0  0  0  0  0  0  0  0  0
   -4.6657    3.6416    0.0000 C   0  0  0  0  0  0  0  0  0  0  0  0
   -6.8639   -0.8214    0.0000 C   0  0  0  0  0  0  0  0  0  0  0  0
   -7.9461   -1.8613    0.0000 C   0  0  0  0  0  0  0  0  0  0  0  0
   -7.1517    0.3436    0.0000 O   0  0  0  0  0  0  0  0  0  0  0  0
   -9.3880   -1.4450    0.0000 C   0  0  0  0  0  0  0  0  0  0  0  0
  -10.4702   -2.4849    0.0000 C   0  0  0  0  0  0  0  0  0  0  0  0
  -11.9119   -2.0709    0.0000 C   0  0  0  0  0  0  0  0  0  0  0  0
  -12.9914   -3.1124    0.0000 C   0  0  0  0  0  0  0  0  0  0  0  0
  -12.6291   -4.5680    0.0000 C   0  0  0  0  0  0  0  0  0  0  0  0
  -11.1874   -4.9821    0.0000 C   0  0  0  0  0  0  0  0  0  0  0  0
  -10.1080   -3.9405    0.0000 C   0  0  0  0  0  0  0  0  0  0  0  0
   -3.6876   -1.4396    0.0000 C   0  0  0  0  0  0  0  0  0  0  0  0
   -4.8853   -1.5123    0.0000 O   0  0  0  0  0  0  0  0  0  0  0  0
   -0.2059    4.1433    0.0000 O   0  0  0  0  0  0  0  0  0  0  0  0
   -2.8601   -2.6917    0.0000 C   0  0  0  0  0  0  0  0  0  0  0  0
   -3.9468   -3.7257    0.0000 C   0  0  0  0  0  0  0  0  0  0  0  0
   -3.5948   -5.1838    0.0000 N   0  0  0  0  0  0  0  0  0  0  0  0
   -2.1560   -5.6080    0.0000 C   0  0  0  0  0  0  0  0  0  0  0  0
   -1.0693   -4.5741    0.0000 C   0  0  0  0  0  0  0  0  0  0  0  0
   -1.4213   -3.1160    0.0000 N   0  0  0  0  0  0  0  0  0  0  0  0
  1  2  1  0
  1  4  1  0
  2  3  1  0
  3  6  1  0
  5  4  1  0
  5  6  1  0
  5 10  1  0
  6  7  1  0
  7  8  1  0
  8  9  1  0
  9 10  1  0
  4 11  1  6
 11 12  1  0
 12 13  1  0
 12 14  2  0
 10 15  1  1
 15 16  1  0
 16 17  1  0
 16 18  2  0
 17 19  2  0
 19 20  1  0
 20 21  2  0
 21 22  1  0
 22 23  2  0
 23 17  1  0
  5 24  1  6
  9 25  1  1
  3 26  1  6
  6 27  1  1
  8 28  1  1
 27 28  1  0
  7 29  1  6
 28 30  1  0
 28 31  1  0
 25 32  1  0
 32 33  1  0
 32 34  2  0
 33 35  2  0
 35 36  1  0
 36 37  2  0
 37 38  1  0
 38 39  2  0
 39 40  1  0
 40 41  2  0
 41 36  1  0
 29 42  1  0
 42 43  2  0
  3 44  1  0
 45 46  2  0
 46 47  1  0
 47 48  2  0
 48 49  1  0
 49 50  2  0
 50 45  1  0
 42 45  1  0
M  END
>  <Curated_InChIs>  (184) 
InChI=1S/C38H40N2O10/c1-23(41)46-27-18-19-36(4,45)38-31(48-34(44)26-22-39-20-21-40-26)29(35(2,3)50-38)30(47-28(42)17-16-24-12-8-6-9-13-24)32(37(27,38)5)49-33(43)25-14-10-7-11-15-25/h6-17,20-22,27,29-32,45H,18-19H2,1-5H3

>  <threshold>  (184) 
5

>  <pchembl>  (184) 
5.76

>  <Classification>  (184) 
1

>  <source>  (184) 
chembl_28

>  <SMILES>  (184) 
CC(=O)O[C@H]1CC[C@](C)(O)[C@]23OC(C)(C)[C@H]([C@H](OC(=O)/C=C/c4ccccc4)[C@H](OC(=O)c4ccccc4)[C@]12C)[C@H]3OC(=O)c1cnccn1

>  <InChIKey>  (184) 
QGJPUCPFJPXNIT-FFLGCKOCSA-N

$$$$

     RDKit          2D

 44 50  0  0  0  0  0  0  0  0999 V2000
    6.1867   -4.3253    0.0000 C   0  0  0  0  0  0  0  0  0  0  0  0
    6.1908   -3.5081    0.0000 C   0  0  0  0  0  0  0  0  0  0  0  0
    5.4810   -4.7257    0.0000 C   0  0  0  0  0  0  0  0  0  0  0  0
    4.0694   -4.7257    0.0000 C   0  0  0  0  0  0  0  0  0  0  0  0
    7.6024   -3.5123    0.0000 C   0  0  0  0  0  0  0  0  0  0  0  0
    6.8966   -3.0995    0.0000 C   0  0  0  0  0  0  0  0  0  0  0  0
    4.7752   -4.3171    0.0000 C   0  0  0  0  0  0  0  0  0  0  0  0
    4.0694   -5.5429    0.0000 C   0  0  0  0  0  0  0  0  0  0  0  0
    3.3637   -5.9473    0.0000 C   0  0  0  0  0  0  0  0  0  0  0  0
    5.4851   -3.0872    0.0000 C   0  0  0  0  0  0  0  0  0  0  0  0
    8.3081   -3.9167    0.0000 C   0  0  0  0  0  0  0  0  0  0  0  0
    6.8925   -4.7339    0.0000 C   0  0  0  0  0  0  0  0  0  0  0  0
    5.4727   -5.5429    0.0000 C   0  0  0  0  0  0  0  0  0  0  0  0
    4.7669   -3.4958    0.0000 C   0  0  0  0  0  0  0  0  0  0  0  0
    7.6024   -4.3295    0.0000 C   0  0  0  0  0  0  0  0  0  0  0  0
    3.3678   -4.3047    0.0000 C   0  0  0  0  0  0  0  0  0  0  0  0
    4.7752   -5.9515    0.0000 C   0  0  0  0  0  0  0  0  0  0  0  0
    8.3081   -3.1037    0.0000 C   0  0  0  0  0  0  0  0  0  0  0  0
    6.8966   -2.2865    0.0000 C   0  0  0  0  0  0  0  0  0  0  0  0
    7.6106   -1.8779    0.0000 C   0  0  0  0  0  0  0  0  0  0  0  0
    8.3040   -4.7381    0.0000 O   0  0  0  0  0  0  0  0  0  0  0  0
    8.3164   -2.2865    0.0000 C   0  0  0  0  0  0  0  0  0  0  0  0
    6.1785   -5.1425    0.0000 C   0  0  0  0  0  0  0  0  0  0  0  0
    9.0139   -3.5081    0.0000 O   0  0  0  0  0  0  0  0  0  0  0  0
    5.4727   -3.9044    0.0000 C   0  0  0  0  0  0  0  0  0  0  0  0
    4.0612   -3.9044    0.0000 C   0  0  0  0  0  0  0  0  0  0  0  0
    3.7599   -6.6572    0.0000 C   0  0  0  0  0  0  0  0  0  0  0  0
    2.9427   -6.6531    0.0000 C   0  0  0  0  0  0  0  0  0  0  0  0
    7.1938   -1.1680    0.0000 C   0  0  0  0  0  0  0  0  0  0  0  0
    8.0110   -1.1680    0.0000 C   0  0  0  0  0  0  0  0  0  0  0  0
    9.7221   -3.9159    0.0000 C   0  0  0  0  0  0  0  0  0  0  0  0
   10.4293   -3.5064    0.0000 C   0  0  0  0  0  0  0  0  0  0  0  0
   11.1350   -3.9157    0.0000 C   0  0  0  0  0  0  0  0  0  0  0  0
   11.8418   -3.5070    0.0000 C   0  0  0  0  0  0  0  0  0  0  0  0
   11.8412   -2.6889    0.0000 C   0  0  0  0  0  0  0  0  0  0  0  0
   11.1281   -2.2813    0.0000 C   0  0  0  0  0  0  0  0  0  0  0  0
   10.4242   -2.6924    0.0000 C   0  0  0  0  0  0  0  0  0  0  0  0
    3.3412   -7.3665    0.0000 O   0  0  0  0  0  0  0  0  0  0  0  0
    2.6593   -5.5388    0.0000 C   0  0  0  0  0  0  0  0  0  0  0  0
    2.6579   -4.7215    0.0000 C   0  0  0  0  0  0  0  0  0  0  0  0
    1.9506   -4.3159    0.0000 N   0  0  0  0  0  0  0  0  0  0  0  0
    1.2442   -4.7264    0.0000 C   0  0  0  0  0  0  0  0  0  0  0  0
    1.2496   -5.5468    0.0000 C   0  0  0  0  0  0  0  0  0  0  0  0
    1.9575   -5.9487    0.0000 N   0  0  0  0  0  0  0  0  0  0  0  0
  2  1  1  0
  3  1  1  0
  4  7  1  0
  5 15  1  0
  6  2  1  0
  7  3  1  0
  8 17  1  1
  9  8  1  0
 10  2  2  0
  5 11  1  1
 12  1  1  0
 13  3  1  0
  7 14  1  1
 15 12  1  0
 16  4  1  0
 17 13  1  0
 18  5  1  0
  6 19  1  6
 39  9  1  0
 20 19  1  0
 21 11  2  0
 40 16  1  0
 22 18  1  0
  1 23  1  6
 24 11  1  0
  3 25  1  1
  4 26  1  1
  9 27  1  1
  9 28  1  0
 29 20  1  0
 30 20  1  0
  5  6  1  0
 14 10  1  0
  8  4  1  0
 20 22  1  0
 24 31  1  0
 31 32  1  0
 32 33  2  0
 33 34  1  0
 34 35  2  0
 35 36  1  0
 36 37  2  0
 37 32  1  0
 28 38  1  0
 39 40  2  0
 40 41  1  0
 41 42  2  0
 42 43  1  0
 43 44  2  0
 44 39  1  0
M  END
>  <Curated_InChIs>  (185) 
InChI=1S/C39H52N2O3/c1-34(2)16-18-39(33(43)44-24-26-10-8-7-9-11-26)19-17-37(5)27(28(39)22-34)12-13-31-35(3)23-29-32(41-21-20-40-29)36(4,25-42)30(35)14-15-38(31,37)6/h7-12,20-21,28,30-31,42H,13-19,22-25H2,1-6H3

>  <threshold>  (185) 
5

>  <pchembl>  (185) 
8.62

>  <Classification>  (185) 
1

>  <source>  (185) 
chembl_28

>  <SMILES>  (185) 
CC1(C)CC[C@]2(C(=O)OCc3ccccc3)CC[C@]3(C)C(=CC[C@@H]4[C@@]5(C)Cc6nccnc6[C@@](C)(CO)[C@@H]5CC[C@]43C)[C@@H]2C1

>  <InChIKey>  (185) 
QGZAUUKJIJZEAS-MQLGQBSPSA-N

$$$$

     RDKit          2D

 25 28  0  0  0  0  0  0  0  0999 V2000
   10.8833  -13.4099    0.0000 N   0  0  0  0  0  0  0  0  0  0  0  0
   11.3905  -12.7701    0.0000 C   0  0  0  0  0  0  0  0  0  0  0  0
   10.9363  -12.0893    0.0000 C   0  0  0  0  0  0  0  0  0  0  0  0
   10.1498  -12.3112    0.0000 C   0  0  0  0  0  0  0  0  0  0  0  0
    9.4571  -11.8745    0.0000 C   0  0  0  0  0  0  0  0  0  0  0  0
    8.7343  -12.2522    0.0000 C   0  0  0  0  0  0  0  0  0  0  0  0
    8.6987  -13.0685    0.0000 C   0  0  0  0  0  0  0  0  0  0  0  0
    9.3914  -13.5052    0.0000 C   0  0  0  0  0  0  0  0  0  0  0  0
   10.1142  -13.1275    0.0000 C   0  0  0  0  0  0  0  0  0  0  0  0
   12.5662  -11.9844    0.0000 C   0  0  0  0  0  0  0  0  0  0  0  0
   12.2036  -12.7167    0.0000 N   0  0  0  0  0  0  0  0  0  0  0  0
   11.2989  -11.3570    0.0000 C   0  0  0  0  0  0  0  0  0  0  0  0
   12.1157  -11.3054    0.0000 N   0  0  0  0  0  0  0  0  0  0  0  0
   13.3829  -11.9328    0.0000 N   0  0  0  0  0  0  0  0  0  0  0  0
   10.8447  -10.6762    0.0000 N   0  0  0  0  0  0  0  0  0  0  0  0
   10.0280  -10.7278    0.0000 C   0  0  0  0  0  0  0  0  0  0  0  0
   11.2073   -9.9439    0.0000 C   0  0  0  0  0  0  0  0  0  0  0  0
   12.0241   -9.8923    0.0000 C   0  0  0  0  0  0  0  0  0  0  0  0
   12.3867   -9.1599    0.0000 C   0  0  0  0  0  0  0  0  0  0  0  0
   11.9325   -8.4791    0.0000 C   0  0  0  0  0  0  0  0  0  0  0  0
   11.1157   -8.5307    0.0000 C   0  0  0  0  0  0  0  0  0  0  0  0
   10.7531   -9.2631    0.0000 C   0  0  0  0  0  0  0  0  0  0  0  0
   12.2950   -7.7468    0.0000 O   0  0  0  0  0  0  0  0  0  0  0  0
   11.8409   -7.0660    0.0000 C   0  0  0  0  0  0  0  0  0  0  0  0
   12.2034   -6.3337    0.0000 C   0  0  0  0  0  0  0  0  0  0  0  0
  1  2  1  0
  2  3  2  0
  3  4  1  0
  4  5  2  0
  5  6  1  0
  6  7  2  0
  7  8  1  0
  8  9  2  0
  1  9  1  0
  4  9  1  0
 10 11  2  0
 12 13  2  0
 10 13  1  0
  2 11  1  0
  3 12  1  0
 10 14  1  0
 12 15  1  0
 15 16  1  0
 17 18  2  0
 18 19  1  0
 19 20  2  0
 20 21  1  0
 21 22  2  0
 17 22  1  0
 24 25  1  0
 23 24  1  0
 20 23  1  0
 15 17  1  0
M  END
>  <Curated_InChIs>  (186) 
InChI=1S/C19H19N5O/c1-3-25-13-10-8-12(9-11-13)24(2)18-16-14-6-4-5-7-15(14)21-17(16)22-19(20)23-18/h4-11H,3H2,1-2H3,(H3,20,21,22,23)

>  <threshold>  (186) 
5

>  <pchembl>  (186) 
7.54

>  <Classification>  (186) 
1

>  <source>  (186) 
chembl_28

>  <SMILES>  (186) 
CCOc1ccc(N(C)c2nc(N)nc3[nH]c4ccccc4c23)cc1

>  <InChIKey>  (186) 
QMKGFBTVQQZEJM-UHFFFAOYSA-N

$$$$

     RDKit          2D

 45 48  0  0  0  0  0  0  0  0999 V2000
    5.6694  -19.0471    0.0000 C   0  0  0  0  0  0  0  0  0  0  0  0
    5.6682  -19.8667    0.0000 C   0  0  0  0  0  0  0  0  0  0  0  0
    6.3763  -20.2756    0.0000 C   0  0  0  0  0  0  0  0  0  0  0  0
    6.3745  -18.6383    0.0000 C   0  0  0  0  0  0  0  0  0  0  0  0
    7.0831  -19.0435    0.0000 C   0  0  0  0  0  0  0  0  0  0  0  0
    7.0820  -19.8642    0.0000 C   0  0  0  0  0  0  0  0  0  0  0  0
    7.7882  -20.2732    0.0000 C   0  0  0  0  0  0  0  0  0  0  0  0
    8.5000  -19.8662    0.0000 C   0  0  0  0  0  0  0  0  0  0  0  0
    8.5012  -19.0455    0.0000 C   0  0  0  0  0  0  0  0  0  0  0  0
    7.7905  -18.6319    0.0000 O   0  0  0  0  0  0  0  0  0  0  0  0
    4.9616  -18.6387    0.0000 O   0  0  0  0  0  0  0  0  0  0  0  0
    6.3780  -21.0928    0.0000 O   0  0  0  0  0  0  0  0  0  0  0  0
    5.6711  -21.5029    0.0000 C   0  0  0  0  0  0  0  0  0  0  0  0
    5.6728  -22.3200    0.0000 C   0  0  0  0  0  0  0  0  0  0  0  0
    9.2066  -20.2767    0.0000 O   0  0  0  0  0  0  0  0  0  0  0  0
    9.2043  -21.0939    0.0000 C   0  0  0  0  0  0  0  0  0  0  0  0
    9.9109  -21.5045    0.0000 C   0  0  0  0  0  0  0  0  0  0  0  0
    8.4955  -21.5005    0.0000 O   0  0  0  0  0  0  0  0  0  0  0  0
    9.2081  -18.6416    0.0000 C   0  0  0  0  0  0  0  0  0  0  0  0
    9.9151  -19.0536    0.0000 C   0  0  0  0  0  0  0  0  0  0  0  0
   10.6233  -18.6474    0.0000 C   0  0  0  0  0  0  0  0  0  0  0  0
   10.6257  -17.8293    0.0000 C   0  0  0  0  0  0  0  0  0  0  0  0
    9.9140  -17.4192    0.0000 C   0  0  0  0  0  0  0  0  0  0  0  0
    9.2087  -17.8277    0.0000 C   0  0  0  0  0  0  0  0  0  0  0  0
    9.9131  -16.6020    0.0000 O   0  0  0  0  0  0  0  0  0  0  0  0
   10.6203  -16.1926    0.0000 C   0  0  0  0  0  0  0  0  0  0  0  0
   10.6194  -15.3754    0.0000 C   0  0  0  0  0  0  0  0  0  0  0  0
   11.3338  -17.4215    0.0000 O   0  0  0  0  0  0  0  0  0  0  0  0
   12.0411  -17.8309    0.0000 C   0  0  0  0  0  0  0  0  0  0  0  0
   12.7493  -17.4231    0.0000 C   0  0  0  0  0  0  0  0  0  0  0  0
   11.3298  -19.0580    0.0000 O   0  0  0  0  0  0  0  0  0  0  0  0
    9.9044  -22.3211    0.0000 C   0  0  0  0  0  0  0  0  0  0  0  0
   10.6102  -22.7316    0.0000 C   0  0  0  0  0  0  0  0  0  0  0  0
   11.3200  -22.3249    0.0000 C   0  0  0  0  0  0  0  0  0  0  0  0
   11.3197  -21.5035    0.0000 C   0  0  0  0  0  0  0  0  0  0  0  0
   10.6133  -21.0967    0.0000 C   0  0  0  0  0  0  0  0  0  0  0  0
   12.0271  -22.7346    0.0000 O   0  0  0  0  0  0  0  0  0  0  0  0
   12.0259  -23.5517    0.0000 C   0  0  0  0  0  0  0  0  0  0  0  0
   12.7330  -23.9614    0.0000 C   0  0  0  0  0  0  0  0  0  0  0  0
   12.0271  -21.0944    0.0000 O   0  0  0  0  0  0  0  0  0  0  0  0
   12.7351  -21.5025    0.0000 C   0  0  0  0  0  0  0  0  0  0  0  0
   13.4425  -21.0933    0.0000 C   0  0  0  0  0  0  0  0  0  0  0  0
   10.6075  -23.5488    0.0000 O   0  0  0  0  0  0  0  0  0  0  0  0
    9.8985  -23.9551    0.0000 C   0  0  0  0  0  0  0  0  0  0  0  0
    9.8958  -24.7722    0.0000 C   0  0  0  0  0  0  0  0  0  0  0  0
  1  2  2  0
  2  3  1  0
  3  6  2  0
  5  4  2  0
  4  1  1  0
  5  6  1  0
  5 10  1  0
  6  7  1  0
  7  8  1  0
  8  9  1  0
  9 10  1  0
  1 11  1  0
  3 12  1  0
 12 13  1  0
 13 14  1  0
  8 15  1  6
 15 16  1  0
 16 17  1  0
 16 18  2  0
 19 20  2  0
 20 21  1  0
 21 22  2  0
 22 23  1  0
 23 24  2  0
 24 19  1  0
  9 19  1  6
 23 25  1  0
 25 26  1  0
 26 27  1  0
 22 28  1  0
 28 29  1  0
 29 30  1  0
 21 31  1  0
 17 32  2  0
 32 33  1  0
 33 34  2  0
 34 35  1  0
 35 36  2  0
 36 17  1  0
 34 37  1  0
 37 38  1  0
 38 39  1  0
 35 40  1  0
 40 41  1  0
 41 42  1  0
 33 43  1  0
 43 44  1  0
 44 45  1  0
M  END
>  <Curated_InChIs>  (187) 
InChI=1S/C34H42O11/c1-7-38-25-17-22(35)18-26-23(25)19-30(31(44-26)20-13-24(36)32(42-11-5)27(14-20)39-8-2)45-34(37)21-15-28(40-9-3)33(43-12-6)29(16-21)41-10-4/h13-18,30-31,35-36H,7-12,19H2,1-6H3

>  <threshold>  (187) 
5

>  <pchembl>  (187) 
6.21, 6.04

>  <Classification>  (187) 
1

>  <source>  (187) 
chembl_28

>  <SMILES>  (187) 
CCOc1cc(O)cc2c1C[C@@H](OC(=O)c1cc(OCC)c(OCC)c(OCC)c1)[C@@H](c1cc(O)c(OCC)c(OCC)c1)O2

>  <InChIKey>  (187) 
QNYUPQMBRWBCFP-FIRIVFDPSA-N

$$$$

     RDKit          2D

 34 38  0  0  0  0  0  0  0  0999 V2000
   39.3863  -28.2958    0.0000 C   0  0  0  0  0  0  0  0  0  0  0  0
   33.7247  -27.4709    0.0000 C   0  0  0  0  0  0  0  0  0  0  0  0
   33.7235  -28.2905    0.0000 C   0  0  0  0  0  0  0  0  0  0  0  0
   34.4315  -28.6994    0.0000 C   0  0  0  0  0  0  0  0  0  0  0  0
   34.4298  -27.0621    0.0000 C   0  0  0  0  0  0  0  0  0  0  0  0
   35.1384  -27.4673    0.0000 C   0  0  0  0  0  0  0  0  0  0  0  0
   35.1372  -28.2880    0.0000 C   0  0  0  0  0  0  0  0  0  0  0  0
   35.8434  -28.6970    0.0000 C   0  0  0  0  0  0  0  0  0  0  0  0
   36.5553  -28.2900    0.0000 C   0  0  0  0  0  0  0  0  0  0  0  0
   36.5565  -27.4693    0.0000 N   0  0  0  0  0  0  0  0  0  0  0  0
   35.8457  -27.0557    0.0000 C   0  0  0  0  0  0  0  0  0  0  0  0
   37.2652  -27.0624    0.0000 C   0  0  0  0  0  0  0  0  0  0  0  0
   37.9719  -27.4728    0.0000 C   0  0  0  0  0  0  0  0  0  0  0  0
   33.0168  -27.0625    0.0000 O   0  0  0  0  0  0  0  0  0  0  0  0
   32.3092  -27.4713    0.0000 C   0  0  0  0  0  0  0  0  0  0  0  0
   33.0155  -28.6985    0.0000 O   0  0  0  0  0  0  0  0  0  0  0  0
   32.3081  -28.2893    0.0000 C   0  0  0  0  0  0  0  0  0  0  0  0
   37.9683  -28.2892    0.0000 C   0  0  0  0  0  0  0  0  0  0  0  0
   38.6741  -28.6994    0.0000 C   0  0  0  0  0  0  0  0  0  0  0  0
   39.3832  -27.4711    0.0000 C   0  0  0  0  0  0  0  0  0  0  0  0
   38.6767  -27.0646    0.0000 C   0  0  0  0  0  0  0  0  0  0  0  0
   40.0898  -27.0606    0.0000 C   0  0  0  0  0  0  0  0  0  0  0  0
   40.7986  -27.4674    0.0000 O   0  0  0  0  0  0  0  0  0  0  0  0
   41.5049  -27.0563    0.0000 C   0  0  0  0  0  0  0  0  0  0  0  0
   42.2133  -27.4636    0.0000 C   0  0  0  0  0  0  0  0  0  0  0  0
   42.2025  -25.8292    0.0000 C   0  0  0  0  0  0  0  0  0  0  0  0
   41.4997  -26.2420    0.0000 C   0  0  0  0  0  0  0  0  0  0  0  0
   42.9166  -26.2352    0.0000 C   0  0  0  0  0  0  0  0  0  0  0  0
   42.9151  -27.0503    0.0000 C   0  0  0  0  0  0  0  0  0  0  0  0
   43.6163  -27.4569    0.0000 O   0  0  0  0  0  0  0  0  0  0  0  0
   44.3236  -27.0530    0.0000 C   0  0  0  0  0  0  0  0  0  0  0  0
   44.3252  -26.2378    0.0000 C   0  0  0  0  0  0  0  0  0  0  0  0
   43.6194  -25.8267    0.0000 C   0  0  0  0  0  0  0  0  0  0  0  0
   45.0300  -27.4639    0.0000 O   0  0  0  0  0  0  0  0  0  0  0  0
  2  3  2  0
  3  4  1  0
  4  7  2  0
  6  5  2  0
  5  2  1  0
  6  7  1  0
  6 11  1  0
  7  8  1  0
  8  9  1  0
  9 10  1  0
 10 11  1  0
 10 12  1  0
 12 13  1  0
  2 14  1  0
 14 15  1  0
  3 16  1  0
 16 17  1  0
 13 18  2  0
 18 19  1  0
 19  1  2  0
  1 20  1  0
 20 21  2  0
 21 13  1  0
 20 22  1  0
 22 23  1  0
 23 24  1  0
 24 25  2  0
 25 29  1  0
 28 26  1  0
 26 27  2  0
 27 24  1  0
 28 29  2  0
 28 33  1  0
 29 30  1  0
 30 31  1  0
 31 32  1  0
 32 33  2  0
 31 34  2  0
M  END
>  <Curated_InChIs>  (188) 
InChI=1S/C28H27NO5/c1-31-26-13-22-10-11-29(17-23(22)14-27(26)32-2)16-19-4-3-5-20(12-19)18-33-24-8-6-21-7-9-28(30)34-25(21)15-24/h3-9,12-15H,10-11,16-18H2,1-2H3

>  <threshold>  (188) 
5

>  <pchembl>  (188) 
6.11

>  <Classification>  (188) 
1

>  <source>  (188) 
chembl_28

>  <SMILES>  (188) 
COc1cc2c(cc1OC)CN(Cc1cccc(COc3ccc4ccc(=O)oc4c3)c1)CC2

>  <InChIKey>  (188) 
QOKZZPBLVVZFTG-UHFFFAOYSA-N

$$$$

     RDKit          2D

 27 29  0  0  0  0  0  0  0  0999 V2000
   35.8807  -18.2629    0.0000 C   0  0  0  0  0  0  0  0  0  0  0  0
   35.8796  -19.0825    0.0000 C   0  0  0  0  0  0  0  0  0  0  0  0
   36.5876  -19.4914    0.0000 C   0  0  0  0  0  0  0  0  0  0  0  0
   37.2973  -19.0820    0.0000 C   0  0  0  0  0  0  0  0  0  0  0  0
   37.2944  -18.2593    0.0000 C   0  0  0  0  0  0  0  0  0  0  0  0
   36.5858  -17.8541    0.0000 C   0  0  0  0  0  0  0  0  0  0  0  0
   38.0006  -17.8481    0.0000 C   0  0  0  0  0  0  0  0  0  0  0  0
   38.7098  -18.2540    0.0000 C   0  0  0  0  0  0  0  0  0  0  0  0
   39.4160  -17.8428    0.0000 C   0  0  0  0  0  0  0  0  0  0  0  0
   40.1253  -18.2487    0.0000 C   0  0  0  0  0  0  0  0  0  0  0  0
   40.1252  -19.0647    0.0000 C   0  0  0  0  0  0  0  0  0  0  0  0
   40.8336  -19.4706    0.0000 C   0  0  0  0  0  0  0  0  0  0  0  0
   41.5408  -19.0593    0.0000 C   0  0  0  0  0  0  0  0  0  0  0  0
   41.5351  -18.2379    0.0000 C   0  0  0  0  0  0  0  0  0  0  0  0
   40.8261  -17.8357    0.0000 C   0  0  0  0  0  0  0  0  0  0  0  0
   38.0056  -19.4895    0.0000 O   0  0  0  0  0  0  0  0  0  0  0  0
   35.1715  -19.4905    0.0000 O   0  0  0  0  0  0  0  0  0  0  0  0
   36.5834  -17.0369    0.0000 O   0  0  0  0  0  0  0  0  0  0  0  0
   38.0069  -20.3067    0.0000 C   0  0  0  0  0  0  0  0  0  0  0  0
   37.9975  -17.0309    0.0000 O   0  0  0  0  0  0  0  0  0  0  0  0
   35.1709  -20.3077    0.0000 C   0  0  0  0  0  0  0  0  0  0  0  0
   42.2401  -17.8265    0.0000 N   0  0  0  0  0  0  0  0  0  0  0  0
   42.9507  -18.2321    0.0000 C   0  0  0  0  0  0  0  0  0  0  0  0
   43.6533  -17.8218    0.0000 C   0  0  0  0  0  0  0  0  0  0  0  0
   43.6516  -17.0043    0.0000 N   0  0  0  0  0  0  0  0  0  0  0  0
   42.9410  -16.5987    0.0000 C   0  0  0  0  0  0  0  0  0  0  0  0
   42.2322  -17.0107    0.0000 C   0  0  0  0  0  0  0  0  0  0  0  0
  1  2  2  0
  2  3  1  0
  3  4  2  0
  4  5  1  0
  5  6  2  0
  6  1  1  0
  5  7  1  0
  7  8  1  0
  8  9  2  0
  9 10  1  0
 10 11  2  0
 11 12  1  0
 12 13  2  0
 13 14  1  0
 14 15  2  0
 15 10  1  0
  4 16  1  0
  2 17  1  0
  6 18  1  0
 16 19  1  0
  7 20  2  0
 17 21  1  0
 22 23  1  0
 22 27  1  0
 23 24  1  0
 24 25  1  0
 25 26  1  0
 26 27  1  0
 14 22  1  0
M  END
>  <Curated_InChIs>  (189) 
InChI=1S/C21H24N2O4/c1-26-17-13-19(25)21(20(14-17)27-2)18(24)7-6-15-4-3-5-16(12-15)23-10-8-22-9-11-23/h3-7,12-14,22,25H,8-11H2,1-2H3

>  <threshold>  (189) 
5

>  <pchembl>  (189) 
5.58

>  <Classification>  (189) 
1

>  <source>  (189) 
chembl_28

>  <SMILES>  (189) 
COc1cc(O)c(C(=O)/C=C/c2cccc(N3CCNCC3)c2)c(OC)c1

>  <InChIKey>  (189) 
QTQFHRQICMVGDY-VOTSOKGWSA-N

$$$$

     RDKit          2D

 30 32  0  0  0  0  0  0  0  0999 V2000
    7.3069  -20.3458    0.0000 C   0  0  0  0  0  0  0  0  0  0  0  0
    7.3057  -21.1732    0.0000 C   0  0  0  0  0  0  0  0  0  0  0  0
    8.0206  -21.5860    0.0000 C   0  0  0  0  0  0  0  0  0  0  0  0
    8.7370  -21.1727    0.0000 C   0  0  0  0  0  0  0  0  0  0  0  0
    8.7341  -20.3422    0.0000 C   0  0  0  0  0  0  0  0  0  0  0  0
    8.0188  -19.9330    0.0000 C   0  0  0  0  0  0  0  0  0  0  0  0
    9.4471  -19.9270    0.0000 N   0  0  0  0  0  0  0  0  0  0  0  0
   10.1631  -20.3368    0.0000 C   0  0  0  0  0  0  0  0  0  0  0  0
   10.8760  -19.9216    0.0000 C   0  0  0  0  0  0  0  0  0  0  0  0
   11.5904  -20.3348    0.0000 C   0  0  0  0  0  0  0  0  0  0  0  0
   12.3028  -19.9203    0.0000 C   0  0  0  0  0  0  0  0  0  0  0  0
   12.3002  -19.0944    0.0000 C   0  0  0  0  0  0  0  0  0  0  0  0
   11.5791  -18.6848    0.0000 C   0  0  0  0  0  0  0  0  0  0  0  0
   10.8697  -19.1017    0.0000 C   0  0  0  0  0  0  0  0  0  0  0  0
    8.0204  -22.4110    0.0000 O   0  0  0  0  0  0  0  0  0  0  0  0
    7.3058  -22.8234    0.0000 C   0  0  0  0  0  0  0  0  0  0  0  0
    6.5909  -21.5851    0.0000 O   0  0  0  0  0  0  0  0  0  0  0  0
    5.8768  -21.1720    0.0000 C   0  0  0  0  0  0  0  0  0  0  0  0
    6.5923  -19.9335    0.0000 O   0  0  0  0  0  0  0  0  0  0  0  0
    6.5921  -19.1085    0.0000 C   0  0  0  0  0  0  0  0  0  0  0  0
   11.5945  -21.1634    0.0000 N   0  0  0  0  0  0  0  0  0  0  0  0
   12.3095  -21.5750    0.0000 O   0  0  0  0  0  0  0  0  0  0  0  0
   10.8805  -21.5768    0.0000 O   0  0  0  0  0  0  0  0  0  0  0  0
   13.0089  -18.6779    0.0000 C   0  0  0  0  0  0  0  0  0  0  0  0
   13.7258  -19.0885    0.0000 C   0  0  0  0  0  0  0  0  0  0  0  0
   14.4376  -18.6731    0.0000 C   0  0  0  0  0  0  0  0  0  0  0  0
   14.4339  -17.8472    0.0000 C   0  0  0  0  0  0  0  0  0  0  0  0
   13.7123  -17.4385    0.0000 C   0  0  0  0  0  0  0  0  0  0  0  0
   13.0034  -17.8563    0.0000 C   0  0  0  0  0  0  0  0  0  0  0  0
   10.1662  -21.1618    0.0000 O   0  0  0  0  0  0  0  0  0  0  0  0
  5  7  1  0
  3 15  1  0
  3  4  1  0
 15 16  1  0
  7  8  1  0
  2 17  1  0
 17 18  1  0
  8  9  1  0
  1 19  1  0
  4  5  2  0
 19 20  1  0
  9 10  2  0
  2  3  2  0
 10 11  1  0
 21 22  2  0
 21 23  1  0
 10 21  1  0
  5  6  1  0
 11 12  2  0
 24 25  2  0
  6  1  2  0
 25 26  1  0
 12 13  1  0
 26 27  2  0
  1  2  1  0
 27 28  1  0
 13 14  2  0
 28 29  2  0
 29 24  1  0
 12 24  1  0
 14  9  1  0
  8 30  2  0
M  CHG  2  21   1  23  -1
M  END
>  <Curated_InChIs>  (190) 
InChI=1S/C22H20N2O6/c1-28-19-12-16(13-20(29-2)21(19)30-3)23-22(25)17-10-9-15(11-18(17)24(26)27)14-7-5-4-6-8-14/h4-13H,1-3H3,(H,23,25)

>  <threshold>  (190) 
5

>  <pchembl>  (190) 
5.7

>  <Classification>  (190) 
1

>  <source>  (190) 
chembl_28

>  <SMILES>  (190) 
COc1cc(NC(=O)c2ccc(-c3ccccc3)cc2[N+](=O)[O-])cc(OC)c1OC

>  <InChIKey>  (190) 
RCEYITFFDFXLHB-UHFFFAOYSA-N

$$$$

     RDKit          2D

 47 49  0  0  0  0  0  0  0  0999 V2000
    8.0914   -2.4749    0.0000 C   0  0  0  0  0  0  0  0  0  0  0  0
    7.6830   -3.1916    0.0000 C   0  0  0  0  0  0  0  0  0  0  0  0
    8.5078   -3.1868    0.0000 C   0  0  0  0  0  0  0  0  0  0  0  0
    5.6907   -4.0199    0.0000 C   0  0  0  0  0  0  0  0  0  0  0  0
    6.2714   -2.6077    0.0000 C   0  0  0  0  0  0  0  0  0  0  0  0
    6.2715   -4.6005    0.0000 C   0  0  0  0  0  0  0  0  0  0  0  0
    7.0989   -4.6005    0.0000 C   0  0  0  0  0  0  0  0  0  0  0  0
    7.6837   -4.0199    0.0000 C   0  0  0  0  0  0  0  0  0  0  0  0
    7.0989   -2.6076    0.0000 C   0  0  0  0  0  0  0  0  0  0  0  0
    2.9999   -3.0207    0.0000 C   0  0  0  0  0  0  0  0  0  0  0  0
    3.4914   -2.3558    0.0000 C   0  0  0  0  0  0  0  0  0  0  0  0
    3.4845   -3.6980    0.0000 C   0  0  0  0  0  0  0  0  0  0  0  0
    3.0765   -4.4154    0.0000 O   0  0  0  0  0  0  0  0  0  0  0  0
    2.1749   -3.0144    0.0000 C   0  0  0  0  0  0  0  0  0  0  0  0
    3.8569   -1.8968    0.0000 O   0  0  0  0  0  0  0  0  0  0  0  0
    4.2783   -3.4407    0.0000 C   0  0  0  0  0  0  0  0  0  0  0  0
    4.2784   -2.6132    0.0000 C   0  0  0  0  0  0  0  0  0  0  0  0
    4.8605   -2.0311    0.0000 C   0  0  0  0  0  0  0  0  0  0  0  0
    4.8606   -4.0228    0.0000 C   0  0  0  0  0  0  0  0  0  0  0  0
    6.2701   -3.4406    0.0000 C   0  0  0  0  0  0  0  0  0  0  0  0
    5.6879   -2.0310    0.0000 C   0  0  0  0  0  0  0  0  0  0  0  0
    3.0319   -1.9042    0.0000 C   0  0  0  0  0  0  0  0  0  0  0  0
    2.6130   -1.1933    0.0000 O   0  0  0  0  0  0  0  0  0  0  0  0
    2.6259   -2.6222    0.0000 C   0  0  0  0  0  0  0  0  0  0  0  0
    4.5447   -1.2691    0.0000 O   0  0  0  0  0  0  0  0  0  0  0  0
    6.0036   -1.2689    0.0000 C   0  0  0  0  0  0  0  0  0  0  0  0
    8.4454   -4.3366    0.0000 O   0  0  0  0  0  0  0  0  0  0  0  0
    5.9558   -5.3627    0.0000 O   0  0  0  0  0  0  0  0  0  0  0  0
    6.3716   -6.0754    0.0000 C   0  0  0  0  0  0  0  0  0  0  0  0
    5.9625   -6.7918    0.0000 C   0  0  0  0  0  0  0  0  0  0  0  0
    7.1965   -6.0715    0.0000 O   0  0  0  0  0  0  0  0  0  0  0  0
    7.5217   -5.3083    0.0000 O   0  0  0  0  0  0  0  0  0  0  0  0
    8.3466   -5.2964    0.0000 C   0  0  0  0  0  0  0  0  0  0  0  0
    8.7694   -6.0048    0.0000 C   0  0  0  0  0  0  0  0  0  0  0  0
    8.7487   -4.5761    0.0000 O   0  0  0  0  0  0  0  0  0  0  0  0
    2.2515   -4.4210    0.0000 C   0  0  0  0  0  0  0  0  0  0  0  0
    1.8439   -5.1382    0.0000 C   0  0  0  0  0  0  0  0  0  0  0  0
    1.8342   -3.7094    0.0000 O   0  0  0  0  0  0  0  0  0  0  0  0
    1.0208   -5.1404    0.0000 C   0  0  0  0  0  0  0  0  0  0  0  0
    0.6133   -5.8567    0.0000 C   0  0  0  0  0  0  0  0  0  0  0  0
    1.0307   -6.5693    0.0000 C   0  0  0  0  0  0  0  0  0  0  0  0
    1.8598   -6.5611    0.0000 C   0  0  0  0  0  0  0  0  0  0  0  0
    2.2636   -5.8441    0.0000 C   0  0  0  0  0  0  0  0  0  0  0  0
    4.5464   -4.7856    0.0000 O   0  0  0  0  0  0  0  0  0  0  0  0
    4.5415   -5.6081    0.0000 C   0  0  0  0  0  0  0  0  0  0  0  0
    5.2535   -6.0248    0.0000 O   0  0  0  0  0  0  0  0  0  0  0  0
    3.8247   -6.0164    0.0000 C   0  0  0  0  0  0  0  0  0  0  0  0
  2  1  1  0
  3  2  1  0
  4  6  1  0
  6  7  1  0
  7  8  1  0
  8  2  1  0
  2  9  1  0
  9  5  2  0
 17 11  1  0
 11 10  1  0
 10 12  1  0
 12 16  1  0
 12 13  1  1
 10 14  1  1
 17 15  1  1
 16 17  1  0
 17 18  1  0
 16 19  1  1
 19  4  1  0
  4 20  2  0
  5 21  1  0
 21 18  1  0
 15 22  1  0
 22 23  2  0
 22 24  1  0
 18 25  2  0
 21 26  1  1
  8 27  2  0
  6 28  1  1
 28 29  1  0
 29 30  1  0
 29 31  2  0
  7 32  1  6
 32 33  1  0
 33 34  1  0
 33 35  2  0
 13 36  1  0
 36 37  1  0
 36 38  2  0
 37 39  2  0
 39 40  1  0
 40 41  2  0
 41 42  1  0
 42 43  2  0
 43 37  1  0
 19 44  1  6
 44 45  1  0
 45 46  2  0
 45 47  1  0
M  END
>  <Curated_InChIs>  (191) 
InChI=1S/C35H42O12/c1-18-15-16-34(8,9)32(41)30(45-23(6)38)29(44-22(5)37)20(3)28(43-21(4)36)26-27(46-33(42)25-13-11-10-12-14-25)19(2)17-35(26,31(18)40)47-24(7)39/h10-16,18-19,26-30H,3,17H2,1-2,4-9H3

>  <threshold>  (191) 
5

>  <pchembl>  (191) 
5.02

>  <Classification>  (191) 
1

>  <source>  (191) 
chembl_28

>  <SMILES>  (191) 
C=C1[C@H](OC(C)=O)[C@@H](OC(C)=O)C(=O)C(C)(C)/C=C/[C@H](C)C(=O)[C@@]2(OC(C)=O)C[C@H](C)[C@H](OC(=O)c3ccccc3)[C@@H]2[C@H]1OC(C)=O

>  <InChIKey>  (191) 
RDGMYUPKWFNGGC-PISILSIWSA-N

$$$$

     RDKit          2D

 42 46  0  0  0  0  0  0  0  0999 V2000
   18.5127  -24.4958    0.0000 N   0  0  0  0  0  0  0  0  0  0  0  0
   19.2239  -24.0861    0.0000 C   0  0  0  0  0  0  0  0  0  0  0  0
   19.9364  -24.4936    0.0000 C   0  0  0  0  0  0  0  0  0  0  0  0
   20.6476  -24.0839    0.0000 S   0  0  0  0  0  0  0  0  0  0  0  0
   19.2226  -23.2648    0.0000 O   0  0  0  0  0  0  0  0  0  0  0  0
   21.3601  -24.4914    0.0000 C   0  0  0  0  0  0  0  0  0  0  0  0
   22.0712  -24.0817    0.0000 C   0  0  0  0  0  0  0  0  0  0  0  0
   22.7837  -24.4892    0.0000 N   0  0  0  0  0  0  0  0  0  0  0  0
   22.0700  -23.2604    0.0000 O   0  0  0  0  0  0  0  0  0  0  0  0
   23.4949  -24.0795    0.0000 C   0  0  0  0  0  0  0  0  0  0  0  0
   24.2439  -24.4082    0.0000 N   0  0  0  0  0  0  0  0  0  0  0  0
   24.7897  -23.7959    0.0000 N   0  0  0  0  0  0  0  0  0  0  0  0
   24.3800  -23.0847    0.0000 C   0  0  0  0  0  0  0  0  0  0  0  0
   23.5768  -23.2601    0.0000 C   0  0  0  0  0  0  0  0  0  0  0  0
   24.7103  -22.3364    0.0000 C   0  0  0  0  0  0  0  0  0  0  0  0
   25.5283  -22.2508    0.0000 C   0  0  0  0  0  0  0  0  0  0  0  0
   25.8594  -21.5005    0.0000 C   0  0  0  0  0  0  0  0  0  0  0  0
   25.3779  -20.8392    0.0000 C   0  0  0  0  0  0  0  0  0  0  0  0
   24.5572  -20.9290    0.0000 C   0  0  0  0  0  0  0  0  0  0  0  0
   24.2257  -21.6796    0.0000 C   0  0  0  0  0  0  0  0  0  0  0  0
   23.4092  -21.7685    0.0000 C   0  0  0  0  0  0  0  0  0  0  0  0
   25.7080  -20.0875    0.0000 C   0  0  0  0  0  0  0  0  0  0  0  0
   26.6762  -21.4141    0.0000 C   0  0  0  0  0  0  0  0  0  0  0  0
   24.4170  -25.2095    0.0000 C   0  0  0  0  0  0  0  0  0  0  0  0
   23.8052  -25.7616    0.0000 C   0  0  0  0  0  0  0  0  0  0  0  0
   23.9765  -26.5640    0.0000 C   0  0  0  0  0  0  0  0  0  0  0  0
   24.7591  -26.8154    0.0000 C   0  0  0  0  0  0  0  0  0  0  0  0
   25.3706  -26.2582    0.0000 C   0  0  0  0  0  0  0  0  0  0  0  0
   25.1962  -25.4579    0.0000 C   0  0  0  0  0  0  0  0  0  0  0  0
   18.5119  -25.3130    0.0000 C   0  0  0  0  0  0  0  0  0  0  0  0
   17.8038  -25.7209    0.0000 C   0  0  0  0  0  0  0  0  0  0  0  0
   19.2193  -25.7223    0.0000 C   0  0  0  0  0  0  0  0  0  0  0  0
   17.0965  -25.3097    0.0000 C   0  0  0  0  0  0  0  0  0  0  0  0
   16.3889  -25.7169    0.0000 C   0  0  0  0  0  0  0  0  0  0  0  0
   16.3877  -26.5350    0.0000 C   0  0  0  0  0  0  0  0  0  0  0  0
   17.1000  -26.9441    0.0000 C   0  0  0  0  0  0  0  0  0  0  0  0
   17.8047  -26.5345    0.0000 C   0  0  0  0  0  0  0  0  0  0  0  0
   19.2170  -26.5391    0.0000 C   0  0  0  0  0  0  0  0  0  0  0  0
   19.9235  -26.9483    0.0000 C   0  0  0  0  0  0  0  0  0  0  0  0
   20.6325  -26.5404    0.0000 C   0  0  0  0  0  0  0  0  0  0  0  0
   20.6307  -25.7189    0.0000 C   0  0  0  0  0  0  0  0  0  0  0  0
   19.9236  -25.3134    0.0000 C   0  0  0  0  0  0  0  0  0  0  0  0
  1  2  1  0
  2  3  1  0
  3  4  1  0
  2  5  2  0
  4  6  1  0
  6  7  1  0
  7  8  1  0
  7  9  2  0
  8 10  1  0
 10 11  1  0
 11 12  1  0
 12 13  2  0
 13 14  1  0
 14 10  2  0
 15 16  2  0
 16 17  1  0
 17 18  2  0
 18 19  1  0
 19 20  2  0
 20 15  1  0
 13 15  1  0
 20 21  1  0
 18 22  1  0
 17 23  1  0
 24 25  2  0
 25 26  1  0
 26 27  2  0
 27 28  1  0
 28 29  2  0
 29 24  1  0
 11 24  1  0
  1 30  1  0
 30 31  1  0
 30 32  1  0
 31 33  2  0
 33 34  1  0
 34 35  2  0
 35 36  1  0
 36 37  2  0
 37 31  1  0
 32 38  2  0
 38 39  1  0
 39 40  2  0
 40 41  1  0
 41 42  2  0
 42 32  1  0
M  END
>  <Curated_InChIs>  (192) 
InChI=1S/C35H34N4O2S/c1-24-19-26(3)30(20-25(24)2)31-21-32(39(38-31)29-17-11-6-12-18-29)36-33(40)22-42-23-34(41)37-35(27-13-7-4-8-14-27)28-15-9-5-10-16-28/h4-21,35H,22-23H2,1-3H3,(H,36,40)(H,37,41)

>  <threshold>  (192) 
5

>  <pchembl>  (192) 
7.8, 7.96, 6.8, 7.25

>  <Classification>  (192) 
1

>  <source>  (192) 
chembl_28

>  <SMILES>  (192) 
Cc1cc(C)c(-c2cc(NC(=O)CSCC(=O)NC(c3ccccc3)c3ccccc3)n(-c3ccccc3)n2)cc1C

>  <InChIKey>  (192) 
RFLDOZBTPRZTHF-UHFFFAOYSA-N

$$$$

     RDKit          2D

 75 78  0  0  0  0  0  0  0  0999 V2000
    2.3292   -3.4917    0.0000 N   0  0  0  0  0  0  0  0  0  0  0  0
    3.3667   -0.2042    0.0000 N   0  0  0  0  0  0  0  0  0  0  0  0
    5.0542   -3.4417    0.0000 C   0  0  0  0  0  0  0  0  0  0  0  0
    2.9292   -3.4917    0.0000 C   0  0  0  0  0  0  0  0  0  0  0  0
    2.7792   -0.0417    0.0000 C   0  0  0  0  0  0  0  0  0  0  0  0
    5.5667   -2.5417    0.0000 N   0  0  0  0  0  0  0  0  0  0  0  0
    5.0667   -4.0417    0.0000 N   0  0  0  0  0  0  0  0  0  0  0  0
    1.4292   -2.9792    0.0000 C   0  0  0  0  0  0  0  0  0  0  0  0
    4.1042   -0.9292    0.0000 C   0  0  0  0  0  0  0  0  0  0  0  0
    5.5667   -3.1417    0.0000 C   0  0  0  0  0  0  0  0  0  0  0  0
    3.8167   -4.0167    0.0000 N   0  0  0  0  0  0  0  0  0  0  0  0
    5.0417   -2.2542    0.0000 C   0  0  0  0  0  0  0  0  0  0  0  0
    4.1167   -4.5167    0.0000 C   0  0  0  0  0  0  0  0  0  0  0  0
    4.5292   -1.3667    0.0000 N   0  0  0  0  0  0  0  0  0  0  0  0
    1.1417   -2.4667    0.0000 N   0  0  0  0  0  0  0  0  0  0  0  0
    0.2417   -1.9417    0.0000 C   0  0  0  0  0  0  0  0  0  0  0  0
    0.0292   -1.1667    0.0000 N   0  0  0  0  0  0  0  0  0  0  0  0
    3.2167   -4.0167    0.0000 C   0  0  0  0  0  0  0  0  0  0  0  0
    5.0417   -1.6542    0.0000 C   0  0  0  0  0  0  0  0  0  0  0  0
    3.5167   -0.7792    0.0000 C   0  0  0  0  0  0  0  0  0  0  0  0
    2.0292   -2.9792    0.0000 C   0  0  0  0  0  0  0  0  0  0  0  0
    0.5417   -2.4667    0.0000 C   0  0  0  0  0  0  0  0  0  0  0  0
    2.2667    0.2583    0.0000 C   0  0  0  0  0  0  0  0  0  0  0  0
    4.7167   -4.5167    0.0000 C   0  0  0  0  0  0  0  0  0  0  0  0
    1.4292   -0.0042    0.0000 O   0  0  0  0  0  0  0  0  0  0  0  0
    0.8042   -0.4167    0.0000 C   0  0  0  0  0  0  0  0  0  0  0  0
    0.0542   -0.4792    0.0000 C   0  0  0  0  0  0  0  0  0  0  0  0
    4.5417   -3.1542    0.0000 O   0  0  0  0  0  0  0  0  0  0  0  0
    3.2167   -2.9792    0.0000 O   0  0  0  0  0  0  0  0  0  0  0  0
    2.3667   -0.4667    0.0000 O   0  0  0  0  0  0  0  0  0  0  0  0
    6.0917   -3.4292    0.0000 C   0  0  0  0  0  0  0  0  0  0  0  0
    4.4042   -0.4292    0.0000 O   0  0  0  0  0  0  0  0  0  0  0  0
    1.1417   -3.4917    0.0000 O   0  0  0  0  0  0  0  0  0  0  0  0
    4.5292   -2.5542    0.0000 O   0  0  0  0  0  0  0  0  0  0  0  0
    3.8167   -5.0417    0.0000 O   0  0  0  0  0  0  0  0  0  0  0  0
    5.5542   -1.3542    0.0000 C   0  0  0  0  0  0  0  0  0  0  0  0
   -0.3583   -1.9417    0.0000 O   0  0  0  0  0  0  0  0  0  0  0  0
    0.2417   -2.9792    0.0000 C   0  0  0  0  0  0  0  0  0  0  0  0
    0.4667    0.2958    0.0000 O   0  0  0  0  0  0  0  0  0  0  0  0
    2.9292   -4.5167    0.0000 C   0  0  0  0  0  0  0  0  0  0  0  0
    2.2667    0.8583    0.0000 C   0  0  0  0  0  0  0  0  0  0  0  0
    3.7917    0.2208    0.0000 C   0  0  0  0  0  0  0  0  0  0  0  0
    2.0292   -4.0167    0.0000 C   0  0  0  0  0  0  0  0  0  0  0  0
    2.3292   -2.4667    0.0000 C   0  0  0  0  0  0  0  0  0  0  0  0
    3.0917   -1.2042    0.0000 C   0  0  0  0  0  0  0  0  0  0  0  0
    5.6292   -4.2292    0.0000 C   0  0  0  0  0  0  0  0  0  0  0  0
    6.0792   -2.2417    0.0000 C   0  0  0  0  0  0  0  0  0  0  0  0
   -0.8458   -1.2667    0.0000 C   0  0  0  0  0  0  0  0  0  0  0  0
    6.6042   -3.1292    0.0000 C   0  0  0  0  0  0  0  0  0  0  0  0
    6.1417   -1.3417    0.0000 C   0  0  0  0  0  0  0  0  0  0  0  0
    5.0667   -5.0042    0.0000 C   0  0  0  0  0  0  0  0  0  0  0  0
    5.6292   -4.8167    0.0000 C   0  0  0  0  0  0  0  0  0  0  0  0
   -0.3583   -2.9792    0.0000 C   0  0  0  0  0  0  0  0  0  0  0  0
    2.7792    1.1458    0.0000 C   0  0  0  0  0  0  0  0  0  0  0  0
    3.2167   -5.0417    0.0000 C   0  0  0  0  0  0  0  0  0  0  0  0
    2.3292   -4.5167    0.0000 C   0  0  0  0  0  0  0  0  0  0  0  0
    1.7542    1.1458    0.0000 C   0  0  0  0  0  0  0  0  0  0  0  0
    2.0292   -1.9417    0.0000 C   0  0  0  0  0  0  0  0  0  0  0  0
    2.9292   -2.4667    0.0000 C   0  0  0  0  0  0  0  0  0  0  0  0
    2.5167   -1.0417    0.0000 C   0  0  0  0  0  0  0  0  0  0  0  0
    3.2542   -1.7792    0.0000 C   0  0  0  0  0  0  0  0  0  0  0  0
    6.4417   -0.8292    0.0000 C   0  0  0  0  0  0  0  0  0  0  0  0
    6.5917   -2.5292    0.0000 C   0  0  0  0  0  0  0  0  0  0  0  0
    7.1167   -3.4292    0.0000 C   0  0  0  0  0  0  0  0  0  0  0  0
    6.4417   -1.8667    0.0000 C   0  0  0  0  0  0  0  0  0  0  0  0
   -0.6458   -3.4917    0.0000 C   0  0  0  0  0  0  0  0  0  0  0  0
   -0.6458   -2.4667    0.0000 C   0  0  0  0  0  0  0  0  0  0  0  0
    2.7792    1.7458    0.0000 C   0  0  0  0  0  0  0  0  0  0  0  0
    2.9292   -5.5542    0.0000 C   0  0  0  0  0  0  0  0  0  0  0  0
    7.1167   -2.2292    0.0000 C   0  0  0  0  0  0  0  0  0  0  0  0
    7.0417   -1.8542    0.0000 C   0  0  0  0  0  0  0  0  0  0  0  0
    7.0292   -0.8292    0.0000 C   0  0  0  0  0  0  0  0  0  0  0  0
    7.6167   -3.1292    0.0000 C   0  0  0  0  0  0  0  0  0  0  0  0
    7.6167   -2.5292    0.0000 C   0  0  0  0  0  0  0  0  0  0  0  0
    7.3292   -1.3417    0.0000 C   0  0  0  0  0  0  0  0  0  0  0  0
  2  5  1  0
  3  7  1  0
  4  1  1  0
  5 23  1  0
  6 10  1  0
  7 24  1  0
  8 21  1  0
  9 14  1  0
 10  3  1  0
 18 11  1  1
 12  6  1  0
 13 11  1  0
 14 19  1  0
 15  8  1  0
 16 22  1  0
 17 16  1  0
 18  4  1  0
 19 12  1  0
 20  2  1  0
 21  1  1  0
 22 15  1  0
 23 25  1  6
 24 13  1  0
 25 26  1  0
 26 27  1  0
 27 17  1  0
 28  3  2  0
 29  4  2  0
 30  5  2  0
 10 31  1  1
 32  9  2  0
 33  8  2  0
 34 12  2  0
 35 13  2  0
 19 36  1  1
 37 16  2  0
 22 38  1  1
 39 26  2  0
 18 40  1  0
 23 41  1  0
 42  2  1  0
 43  1  1  0
 21 44  1  6
 20 45  1  6
 46  7  1  0
 47  6  1  0
 48 17  1  0
 49 31  1  0
 50 36  1  0
 24 51  1  1
 52 51  1  0
 53 38  1  0
 54 41  1  0
 55 40  1  0
 40 56  1  6
 41 57  1  1
 58 44  1  0
 59 44  1  0
 60 45  1  0
 61 45  1  0
 62 50  2  0
 63 49  2  0
 64 49  1  0
 65 50  1  0
 66 53  1  0
 67 53  1  0
 68 54  1  0
 69 55  1  0
 70 63  1  0
 71 65  2  0
 72 62  1  0
 73 64  2  0
 74 73  1  0
 75 71  1  0
 52 46  1  0
 20  9  1  0
 70 74  2  0
 75 72  2  0
M  END
>  <Curated_InChIs>  (193) 
InChI=1S/C57H86N8O10/c1-15-37(9)46-56(73)63(13)47(35(5)6)51(68)58-41(30-34(3)4)53(70)61(11)33-45(66)75-49(38(10)16-2)57(74)64(14)48(36(7)8)52(69)59-42(31-39-24-19-17-20-25-39)54(71)62(12)44(32-40-26-21-18-22-27-40)55(72)65-29-23-28-43(65)50(67)60-46/h17-22,24-27,34-38,41-44,46-49H,15-16,23,28-33H2,1-14H3,(H,58,68)(H,59,69)(H,60,67)

>  <threshold>  (193) 
5

>  <pchembl>  (193) 
6.05

>  <Classification>  (193) 
1

>  <source>  (193) 
chembl_28

>  <SMILES>  (193) 
CC[C@H](C)[C@@H]1NC(=O)[C@@H]2CCCN2C(=O)[C@H](Cc2ccccc2)N(C)C(=O)[C@H](Cc2ccccc2)NC(=O)[C@H](C(C)C)N(C)C(=O)[C@@H]([C@@H](C)CC)OC(=O)CN(C)C(=O)[C@H](CC(C)C)NC(=O)[C@H](C(C)C)N(C)C1=O

>  <InChIKey>  (193) 
RHWDFMQTQSGQIG-POGRDONZSA-N

$$$$

     RDKit          2D

 37 42  0  0  0  0  0  0  0  0999 V2000
    2.0440    1.7885    0.0000 C   0  0  0  0  0  0  0  0  0  0  0  0
   -1.6790   -0.3832    0.0000 C   0  0  0  0  0  0  0  0  0  0  0  0
   -1.6790   -1.8250    0.0000 C   0  0  0  0  0  0  0  0  0  0  0  0
    2.0440    0.3467    0.0000 C   0  0  0  0  0  0  0  0  0  0  0  0
   -0.4380    0.3285    0.0000 C   0  0  0  0  0  0  0  0  0  0  0  0
    0.8030   -0.3650    0.0000 C   0  0  0  0  0  0  0  0  0  0  0  0
    3.3032    2.5367    0.0000 C   0  0  0  0  0  0  0  0  0  0  0  0
   -2.9382   -2.5732    0.0000 C   0  0  0  0  0  0  0  0  0  0  0  0
    0.8030    2.5185    0.0000 C   0  0  0  0  0  0  0  0  0  0  0  0
   -0.4562    1.7885    0.0000 C   0  0  0  0  0  0  0  0  0  0  0  0
    4.5625    0.3285    0.0000 C   0  0  0  0  0  0  0  0  0  0  0  0
   -2.9565    0.3102    0.0000 C   0  0  0  0  0  0  0  0  0  0  0  0
    4.5625    1.8067    0.0000 C   0  0  0  0  0  0  0  0  0  0  0  0
    0.8212   -1.8067    0.0000 C   0  0  0  0  0  0  0  0  0  0  0  0
    4.5993    3.2532    0.0000 C   0  0  0  0  0  0  0  0  0  0  0  0
   -0.4197   -2.5550    0.0000 C   0  0  0  0  0  0  0  0  0  0  0  0
   -4.1792   -1.8432    0.0000 C   0  0  0  0  0  0  0  0  0  0  0  0
    5.6420    2.6592    0.0000 O   0  0  0  0  0  0  0  0  0  0  0  0
   -5.2209   -2.4390    0.0000 O   0  0  0  0  0  0  0  0  0  0  0  0
   -4.1792   -0.4015    0.0000 C   0  0  0  0  0  0  0  0  0  0  0  0
    2.0413    2.9885    0.0000 C   0  0  0  0  0  0  0  0  0  0  0  0
   -1.6930    0.8167    0.0000 C   0  0  0  0  0  0  0  0  0  0  0  0
    4.5927    4.4532    0.0000 C   0  0  0  0  0  0  0  0  0  0  0  0
   -1.7625    2.5282    0.0000 O   0  0  0  0  0  0  0  0  0  0  0  0
    2.3183    3.6431    0.0000 O   0  0  0  0  0  0  0  0  0  0  0  0
   -1.7760    4.0289    0.0000 C   0  0  0  0  0  0  0  0  0  0  0  0
   -3.0802    4.7700    0.0000 O   0  0  0  0  0  0  0  0  0  0  0  0
   -3.0906    6.2699    0.0000 C   0  0  0  0  0  0  0  0  0  0  0  0
   -1.7968    7.0289    0.0000 C   0  0  0  0  0  0  0  0  0  0  0  0
   -0.4926    6.2880    0.0000 C   0  0  0  0  0  0  0  0  0  0  0  0
   -0.4822    4.7880    0.0000 C   0  0  0  0  0  0  0  0  0  0  0  0
    2.8229    5.0565    0.0000 C   0  0  0  0  0  0  0  0  0  0  0  0
    1.8347    6.1866    0.0000 C   0  0  0  0  0  0  0  0  0  0  0  0
    2.3184    7.6064    0.0000 C   0  0  0  0  0  0  0  0  0  0  0  0
    3.7899    7.8974    0.0000 C   0  0  0  0  0  0  0  0  0  0  0  0
    4.7777    6.7686    0.0000 C   0  0  0  0  0  0  0  0  0  0  0  0
    4.2939    5.3487    0.0000 O   0  0  0  0  0  0  0  0  0  0  0  0
  2  5  1  0
  3  2  1  0
  4  1  1  0
  5 10  1  1
  6  4  1  0
  7  1  1  0
  3  8  1  6
  9  1  1  0
 10  9  1  0
  4 11  1  1
 12  2  1  0
 13  7  1  0
  6 14  1  6
  7 15  1  0
 16 14  1  0
 17 20  1  0
 18 15  2  0
 19 17  2  0
 20 12  1  0
  1 21  1  1
  2 22  1  1
 23 15  1  0
 13 11  1  0
  5  6  1  0
 16  3  1  0
 17  8  1  0
 10 24  1  6
  7 25  1  6
 26 24  1  6
 26 27  1  0
 26 31  1  0
 27 28  1  0
 28 29  1  0
 29 30  1  0
 30 31  1  0
 32 25  1  6
 32 33  1  0
 32 37  1  0
 33 34  1  0
 34 35  1  0
 35 36  1  0
 36 37  1  0
M  END
>  <Curated_InChIs>  (194) 
InChI=1S/C31H48O6/c1-20(32)31(37-27-9-5-7-17-35-27)15-13-24-23-11-10-21-18-22(33)12-14-29(21,2)28(23)25(19-30(24,31)3)36-26-8-4-6-16-34-26/h21,23-28H,4-19H2,1-3H3

>  <threshold>  (194) 
5

>  <pchembl>  (194) 
8.0

>  <Classification>  (194) 
1

>  <source>  (194) 
chembl_28

>  <SMILES>  (194) 
CC(=O)[C@@]1(O[C@@H]2CCCCO2)CC[C@H]2[C@@H]3CC[C@@H]4CC(=O)CC[C@]4(C)[C@H]3[C@H](O[C@H]3CCCCO3)C[C@@]21C

>  <InChIKey>  (194) 
RKLIFQJGTGPQMA-KQSFVFRRSA-N

$$$$

     RDKit          2D

 35 37  0  0  0  0  0  0  0  0999 V2000
   11.2962  -14.8044    0.0000 F   0  0  0  0  0  0  0  0  0  0  0  0
   10.5905  -14.3958    0.0000 C   0  0  0  0  0  0  0  0  0  0  0  0
   10.5895  -15.2113    0.0000 F   0  0  0  0  0  0  0  0  0  0  0  0
    2.5803  -11.5640    0.0000 O   0  0  0  0  0  0  0  0  0  0  0  0
    3.3075  -11.1912    0.0000 C   0  0  0  0  0  0  0  0  0  0  0  0
    3.3086  -10.3717    0.0000 C   0  0  0  0  0  0  0  0  0  0  0  0
    4.0155  -11.6002    0.0000 C   0  0  0  0  0  0  0  0  0  0  0  0
    4.7252  -11.1908    0.0000 C   0  0  0  0  0  0  0  0  0  0  0  0
    4.7224  -10.3681    0.0000 C   0  0  0  0  0  0  0  0  0  0  0  0
    4.0137   -9.9628    0.0000 C   0  0  0  0  0  0  0  0  0  0  0  0
    5.4285   -9.9568    0.0000 C   0  0  0  0  0  0  0  0  0  0  0  0
    6.1378  -10.3628    0.0000 N   0  0  0  0  0  0  0  0  0  0  0  0
    5.4254   -9.1396    0.0000 O   0  0  0  0  0  0  0  0  0  0  0  0
    6.8439   -9.9515    0.0000 C   0  0  0  0  0  0  0  0  0  0  0  0
    7.5532  -10.3574    0.0000 C   0  0  0  0  0  0  0  0  0  0  0  0
    6.8408   -9.1343    0.0000 C   0  0  0  0  0  0  0  0  0  0  0  0
    7.5470   -8.7231    0.0000 C   0  0  0  0  0  0  0  0  0  0  0  0
    6.1316   -8.7284    0.0000 C   0  0  0  0  0  0  0  0  0  0  0  0
    7.6440  -11.1691    0.0000 N   0  0  0  0  0  0  0  0  0  0  0  0
    8.4440  -11.3360    0.0000 C   0  0  0  0  0  0  0  0  0  0  0  0
    8.8499  -10.6267    0.0000 C   0  0  0  0  0  0  0  0  0  0  0  0
    8.3008  -10.0216    0.0000 S   0  0  0  0  0  0  0  0  0  0  0  0
    8.7792  -12.0813    0.0000 C   0  0  0  0  0  0  0  0  0  0  0  0
    8.3013  -12.7442    0.0000 O   0  0  0  0  0  0  0  0  0  0  0  0
    9.5922  -12.1637    0.0000 N   0  0  0  0  0  0  0  0  0  0  0  0
    4.0153  -12.4174    0.0000 O   0  0  0  0  0  0  0  0  0  0  0  0
    3.3075  -12.8258    0.0000 C   0  0  0  0  0  0  0  0  0  0  0  0
    2.6008   -9.9633    0.0000 O   0  0  0  0  0  0  0  0  0  0  0  0
    1.8932  -10.3720    0.0000 C   0  0  0  0  0  0  0  0  0  0  0  0
    1.8938  -11.1206    0.0000 C   0  0  0  0  0  0  0  0  0  0  0  0
    9.9274  -12.9089    0.0000 C   0  0  0  0  0  0  0  0  0  0  0  0
    9.4482  -13.5678    0.0000 C   0  0  0  0  0  0  0  0  0  0  0  0
    9.7801  -14.3107    0.0000 C   0  0  0  0  0  0  0  0  0  0  0  0
   11.0730  -13.7347    0.0000 C   0  0  0  0  0  0  0  0  0  0  0  0
   10.7401  -12.9856    0.0000 C   0  0  0  0  0  0  0  0  0  0  0  0
  2  1  1  0
  3  2  1  0
  4  5  1  0
  6  5  2  0
  5  7  1  0
  7  8  2  0
  8  9  1  0
  9 10  2  0
 10  6  1  0
  9 11  1  0
 11 12  1  0
 11 13  2  0
 12 14  1  0
 14 15  1  0
 14 16  1  0
 16 17  1  0
 16 18  1  0
 15 19  2  0
 19 20  1  0
 20 21  2  0
 21 22  1  0
 22 15  1  0
 20 23  1  0
 23 24  2  0
 23 25  1  0
  7 26  1  0
 26 27  1  0
  6 28  1  0
 28 29  1  0
  4 30  1  0
 25 31  1  0
 31 32  1  0
 31 35  1  0
 32 33  1  0
 33  2  1  0
  2 34  1  0
 34 35  1  0
M  END
>  <Curated_InChIs>  (195) 
InChI=1S/C24H31F2N3O5S/c1-13(2)19(29-21(30)14-10-17(32-3)20(34-5)18(11-14)33-4)23-28-16(12-35-23)22(31)27-15-6-8-24(25,26)9-7-15/h10-13,15,19H,6-9H2,1-5H3,(H,27,31)(H,29,30)

>  <threshold>  (195) 
5

>  <pchembl>  (195) 
7.0

>  <Classification>  (195) 
1

>  <source>  (195) 
chembl_28

>  <SMILES>  (195) 
COc1cc(C(=O)NC(c2nc(C(=O)NC3CCC(F)(F)CC3)cs2)C(C)C)cc(OC)c1OC

>  <InChIKey>  (195) 
RPPDQVOBXVTPME-UHFFFAOYSA-N

$$$$

     RDKit          2D

 33 37  0  0  0  0  0  0  0  0999 V2000
    4.7111  -12.3458    0.0000 C   0  0  0  0  0  0  0  0  0  0  0  0
    4.7099  -13.1732    0.0000 C   0  0  0  0  0  0  0  0  0  0  0  0
    5.4247  -13.5860    0.0000 C   0  0  0  0  0  0  0  0  0  0  0  0
    5.4229  -11.9330    0.0000 C   0  0  0  0  0  0  0  0  0  0  0  0
    6.1383  -12.3422    0.0000 C   0  0  0  0  0  0  0  0  0  0  0  0
    6.1417  -13.1752    0.0000 C   0  0  0  0  0  0  0  0  0  0  0  0
    6.8609  -13.5865    0.0000 Se  0  0  0  0  0  2  0  0  0  0  0  0
    6.8541  -11.9204    0.0000 C   0  0  0  0  0  0  0  0  0  0  0  0
    7.5779  -12.3363    0.0000 C   0  0  0  0  0  0  0  0  0  0  0  0
    7.5808  -13.1732    0.0000 C   0  0  0  0  0  0  0  0  0  0  0  0
    8.3059  -13.5874    0.0000 C   0  0  0  0  0  0  0  0  0  0  0  0
    9.0286  -13.1657    0.0000 C   0  0  0  0  0  0  0  0  0  0  0  0
    9.0216  -12.3256    0.0000 C   0  0  0  0  0  0  0  0  0  0  0  0
    8.2959  -11.9152    0.0000 C   0  0  0  0  0  0  0  0  0  0  0  0
    6.8495  -11.0954    0.0000 C   0  0  0  0  0  0  0  0  0  0  0  0
    9.7457  -13.5736    0.0000 N   0  0  0  0  0  0  0  0  0  0  0  0
    9.7510  -14.3986    0.0000 C   0  0  0  0  0  0  0  0  0  0  0  0
   10.4575  -13.1566    0.0000 C   0  0  0  0  0  0  0  0  0  0  0  0
    3.9951  -13.5851    0.0000 N   0  0  0  0  0  0  0  0  0  0  0  0
    3.2810  -13.1720    0.0000 C   0  0  0  0  0  0  0  0  0  0  0  0
    3.9945  -14.4101    0.0000 C   0  0  0  0  0  0  0  0  0  0  0  0
    7.5150  -10.6069    0.0000 S   0  0  0  0  0  0  0  0  0  0  0  0
    7.2557   -9.8237    0.0000 C   0  0  0  0  0  0  0  0  0  0  0  0
    6.4307   -9.8283    0.0000 C   0  0  0  0  0  0  0  0  0  0  0  0
    6.1802  -10.6143    0.0000 C   0  0  0  0  0  0  0  0  0  0  0  0
    7.7370   -9.1536    0.0000 C   0  0  0  0  0  0  0  0  0  0  0  0
    8.5521   -9.2336    0.0000 N   0  0  0  0  0  0  0  0  0  0  0  0
    7.3915   -8.4000    0.0000 S   0  0  0  0  0  0  0  0  0  0  0  0
    8.8869   -9.9819    0.0000 C   0  0  0  0  0  0  0  0  0  0  0  0
    9.6983  -10.0635    0.0000 C   0  0  0  0  0  0  0  0  0  0  0  0
   10.1788   -9.3997    0.0000 C   0  0  0  0  0  0  0  0  0  0  0  0
    9.8418   -8.6520    0.0000 C   0  0  0  0  0  0  0  0  0  0  0  0
    9.0244   -8.5682    0.0000 C   0  0  0  0  0  0  0  0  0  0  0  0
  5  8  1  0
 12 16  2  3
  6  7  1  0
 16 17  1  0
  7 10  1  0
 16 18  1  0
  9  8  2  0
  2 19  1  0
  5  4  1  0
 19 20  1  0
  4  1  2  0
 19 21  1  0
 15 22  1  0
  9 10  1  0
  5  6  2  0
 10 11  2  0
 22 23  1  0
 23 24  2  0
 24 25  1  0
 25 15  2  0
 11 12  1  0
 23 26  1  0
  2  3  2  0
 12 13  1  0
 26 27  1  0
 26 28  2  0
 27 29  1  0
  3  6  1  0
 13 14  2  0
 14  9  1  0
  1  2  1  0
  8 15  1  0
 27 33  1  0
 29 30  1  0
 30 31  1  0
 31 32  1  0
 32 33  1  0
M  CHG  1  16   1
M  END
>  <Curated_InChIs>  (196) 
InChI=1S/C27H30N3S2Se/c1-28(2)18-8-10-20-24(16-18)33-25-17-19(29(3)4)9-11-21(25)26(20)22-12-13-23(32-22)27(31)30-14-6-5-7-15-30/h8-13,16-17H,5-7,14-15H2,1-4H3

>  <threshold>  (196) 
5

>  <pchembl>  (196) 
5.05

>  <Classification>  (196) 
1

>  <source>  (196) 
chembl_28

>  <SMILES>  (196) 
CN(C)c1ccc2c(-c3ccc(C(=S)N4CCCCC4)s3)c3ccc(=[N+](C)C)cc-3[se]c2c1

>  <InChIKey>  (196) 
RQPFVWVAMDKMPO-UHFFFAOYSA-N

$$$$

     RDKit          2D

 41 44  0  0  0  0  0  0  0  0999 V2000
    4.4271  -14.6846    0.0000 C   0  0  0  0  0  0  0  0  0  0  0  0
    4.4260  -15.5042    0.0000 C   0  0  0  0  0  0  0  0  0  0  0  0
    5.1340  -15.9131    0.0000 C   0  0  0  0  0  0  0  0  0  0  0  0
    5.8437  -15.5037    0.0000 C   0  0  0  0  0  0  0  0  0  0  0  0
    5.8408  -14.6810    0.0000 C   0  0  0  0  0  0  0  0  0  0  0  0
    5.1322  -14.2758    0.0000 C   0  0  0  0  0  0  0  0  0  0  0  0
    5.1298  -13.4586    0.0000 O   0  0  0  0  0  0  0  0  0  0  0  0
    5.8363  -13.0479    0.0000 C   0  0  0  0  0  0  0  0  0  0  0  0
    3.7193  -14.2762    0.0000 O   0  0  0  0  0  0  0  0  0  0  0  0
    3.7191  -13.4590    0.0000 C   0  0  0  0  0  0  0  0  0  0  0  0
    3.7179  -15.9122    0.0000 O   0  0  0  0  0  0  0  0  0  0  0  0
    3.0105  -15.5031    0.0000 C   0  0  0  0  0  0  0  0  0  0  0  0
    6.5520  -15.9112    0.0000 N   0  0  0  0  0  0  0  0  0  0  0  0
    7.2591  -15.5015    0.0000 C   0  0  0  0  0  0  0  0  0  0  0  0
    7.9674  -15.9090    0.0000 C   0  0  0  0  0  0  0  0  0  0  0  0
    8.6745  -15.4993    0.0000 S   0  0  0  0  0  0  0  0  0  0  0  0
    7.2578  -14.6843    0.0000 O   0  0  0  0  0  0  0  0  0  0  0  0
    9.3828  -15.9067    0.0000 C   0  0  0  0  0  0  0  0  0  0  0  0
   10.0899  -15.4970    0.0000 C   0  0  0  0  0  0  0  0  0  0  0  0
   10.7983  -15.9045    0.0000 N   0  0  0  0  0  0  0  0  0  0  0  0
   10.0886  -14.6799    0.0000 O   0  0  0  0  0  0  0  0  0  0  0  0
   11.5053  -15.4948    0.0000 C   0  0  0  0  0  0  0  0  0  0  0  0
   12.2501  -15.8236    0.0000 N   0  0  0  0  0  0  0  0  0  0  0  0
   12.7960  -15.2154    0.0000 N   0  0  0  0  0  0  0  0  0  0  0  0
   12.3862  -14.5083    0.0000 C   0  0  0  0  0  0  0  0  0  0  0  0
   11.5872  -14.6796    0.0000 C   0  0  0  0  0  0  0  0  0  0  0  0
   12.7166  -13.7641    0.0000 C   0  0  0  0  0  0  0  0  0  0  0  0
   13.5304  -13.6786    0.0000 C   0  0  0  0  0  0  0  0  0  0  0  0
   13.8616  -12.9323    0.0000 C   0  0  0  0  0  0  0  0  0  0  0  0
   13.3800  -12.2710    0.0000 C   0  0  0  0  0  0  0  0  0  0  0  0
   12.5635  -12.3609    0.0000 C   0  0  0  0  0  0  0  0  0  0  0  0
   12.2361  -13.1073    0.0000 C   0  0  0  0  0  0  0  0  0  0  0  0
   11.4238  -13.1963    0.0000 C   0  0  0  0  0  0  0  0  0  0  0  0
   13.7102  -11.5235    0.0000 C   0  0  0  0  0  0  0  0  0  0  0  0
   14.6742  -12.8460    0.0000 C   0  0  0  0  0  0  0  0  0  0  0  0
   12.4233  -16.6207    0.0000 C   0  0  0  0  0  0  0  0  0  0  0  0
   11.8156  -17.1687    0.0000 C   0  0  0  0  0  0  0  0  0  0  0  0
   11.9869  -17.9670    0.0000 C   0  0  0  0  0  0  0  0  0  0  0  0
   12.7654  -18.2184    0.0000 C   0  0  0  0  0  0  0  0  0  0  0  0
   13.3727  -17.6653    0.0000 C   0  0  0  0  0  0  0  0  0  0  0  0
   13.1983  -16.8691    0.0000 C   0  0  0  0  0  0  0  0  0  0  0  0
  1  2  2  0
  2  3  1  0
  3  4  2  0
  4  5  1  0
  5  6  2  0
  6  1  1  0
  6  7  1  0
  7  8  1  0
  1  9  1  0
  9 10  1  0
  2 11  1  0
 11 12  1  0
  4 13  1  0
 13 14  1  0
 14 15  1  0
 15 16  1  0
 14 17  2  0
 16 18  1  0
 18 19  1  0
 19 20  1  0
 19 21  2  0
 20 22  1  0
 22 23  1  0
 23 24  1  0
 24 25  2  0
 25 26  1  0
 26 22  2  0
 27 28  2  0
 28 29  1  0
 29 30  2  0
 30 31  1  0
 31 32  2  0
 32 27  1  0
 25 27  1  0
 32 33  1  0
 30 34  1  0
 29 35  1  0
 36 37  2  0
 37 38  1  0
 38 39  2  0
 39 40  1  0
 40 41  2  0
 41 36  1  0
 23 36  1  0
M  END
>  <Curated_InChIs>  (197) 
InChI=1S/C31H34N4O5S/c1-19-12-21(3)24(13-20(19)2)25-16-28(35(34-25)23-10-8-7-9-11-23)33-30(37)18-41-17-29(36)32-22-14-26(38-4)31(40-6)27(15-22)39-5/h7-16H,17-18H2,1-6H3,(H,32,36)(H,33,37)

>  <threshold>  (197) 
5

>  <pchembl>  (197) 
8.72, 9.19, 6.73, 10.15

>  <Classification>  (197) 
1

>  <source>  (197) 
chembl_28

>  <SMILES>  (197) 
COc1cc(NC(=O)CSCC(=O)Nc2cc(-c3cc(C)c(C)cc3C)nn2-c2ccccc2)cc(OC)c1OC

>  <InChIKey>  (197) 
RTKJPHWZBQIUQR-UHFFFAOYSA-N

$$$$

     RDKit          2D

 33 38  0  0  0  0  0  0  0  0999 V2000
    6.7682  -28.2565    0.0000 C   0  0  0  0  0  0  0  0  0  0  0  0
    7.4813  -27.0164    0.0000 C   0  0  0  0  0  0  0  0  0  0  0  0
    8.1966  -27.4255    0.0000 C   0  0  0  0  0  0  0  0  0  0  0  0
    8.2001  -28.2586    0.0000 C   0  0  0  0  0  0  0  0  0  0  0  0
    8.9192  -28.6699    0.0000 Se  0  0  0  0  0  2  0  0  0  0  0  0
    8.9124  -27.0037    0.0000 C   0  0  0  0  0  0  0  0  0  0  0  0
    9.6362  -27.4196    0.0000 C   0  0  0  0  0  0  0  0  0  0  0  0
    9.6391  -28.2565    0.0000 C   0  0  0  0  0  0  0  0  0  0  0  0
   10.3642  -28.6707    0.0000 C   0  0  0  0  0  0  0  0  0  0  0  0
   11.0869  -28.2490    0.0000 C   0  0  0  0  0  0  0  0  0  0  0  0
   11.0800  -27.4089    0.0000 C   0  0  0  0  0  0  0  0  0  0  0  0
   10.3543  -26.9986    0.0000 C   0  0  0  0  0  0  0  0  0  0  0  0
    8.9079  -26.1787    0.0000 C   0  0  0  0  0  0  0  0  0  0  0  0
    9.6244  -25.7668    0.0000 C   0  0  0  0  0  0  0  0  0  0  0  0
    8.9069  -24.5337    0.0000 C   0  0  0  0  0  0  0  0  0  0  0  0
    8.1929  -24.9518    0.0000 C   0  0  0  0  0  0  0  0  0  0  0  0
    9.6218  -24.9463    0.0000 C   0  0  0  0  0  0  0  0  0  0  0  0
    8.1938  -25.7758    0.0000 C   0  0  0  0  0  0  0  0  0  0  0  0
   11.8040  -28.6570    0.0000 N   0  0  0  0  0  0  0  0  0  0  0  0
   11.8093  -29.4819    0.0000 C   0  0  0  0  0  0  0  0  0  0  0  0
   12.5158  -28.2399    0.0000 C   0  0  0  0  0  0  0  0  0  0  0  0
    6.0534  -28.6684    0.0000 N   0  0  0  0  0  0  0  0  0  0  0  0
    6.0528  -29.4934    0.0000 C   0  0  0  0  0  0  0  0  0  0  0  0
    6.7669  -29.9065    0.0000 C   0  0  0  0  0  0  0  0  0  0  0  0
    7.4817  -29.4946    0.0000 C   0  0  0  0  0  0  0  0  0  0  0  0
    7.4824  -28.6696    0.0000 C   0  0  0  0  0  0  0  0  0  0  0  0
    5.3393  -28.2554    0.0000 C   0  0  0  0  0  0  0  0  0  0  0  0
    5.3400  -27.4304    0.0000 C   0  0  0  0  0  0  0  0  0  0  0  0
    6.0548  -27.0184    0.0000 C   0  0  0  0  0  0  0  0  0  0  0  0
    6.7689  -27.4315    0.0000 C   0  0  0  0  0  0  0  0  0  0  0  0
    8.9043  -23.7087    0.0000 N   0  0  0  0  0  0  0  0  0  0  0  0
    9.6174  -23.2939    0.0000 C   0  0  0  0  0  0  0  0  0  0  0  0
    8.1885  -23.2985    0.0000 C   0  0  0  0  0  0  0  0  0  0  0  0
 15 16  2  0
  4  5  1  0
  5  8  1  0
  7  6  2  0
  3  2  2  0
 13 18  2  0
 14 17  2  0
 17 15  1  0
 16 18  1  0
  2 30  1  0
 10 19  2  3
  7  8  1  0
 19 20  1  0
  3  4  1  0
 19 21  1  0
  8  9  2  0
  1 22  1  0
 30  1  2  0
 22 23  1  0
  9 10  1  0
 23 24  1  0
  1 26  1  0
 24 25  1  0
 10 11  1  0
 25 26  1  0
 26  4  2  0
 22 27  1  0
 11 12  2  0
 27 28  1  0
 12  7  1  0
 28 29  1  0
 29 30  1  0
  6 13  1  0
 15 31  1  0
 13 14  1  0
 31 32  1  0
  3  6  1  0
 31 33  1  0
M  CHG  1  19   1
M  END
>  <Curated_InChIs>  (198) 
InChI=1S/C29H32N3Se/c1-30(2)21-11-9-19(10-12-21)27-23-14-13-22(31(3)4)18-26(23)33-29-24-8-6-16-32-15-5-7-20(28(24)32)17-25(27)29/h9-14,17-18H,5-8,15-16H2,1-4H3

>  <threshold>  (198) 
5

>  <pchembl>  (198) 
5.17

>  <Classification>  (198) 
1

>  <source>  (198) 
chembl_28

>  <SMILES>  (198) 
CN(C)c1ccc(-c2c3ccc(=[N+](C)C)cc-3[se]c3c4c5c(cc23)CCCN5CCC4)cc1

>  <InChIKey>  (198) 
RVOFDABPQAIZTD-UHFFFAOYSA-N

$$$$

     RDKit          2D

 39 43  0  0  0  0  0  0  0  0999 V2000
   20.1686  -16.4003    0.0000 C   0  0  0  0  0  0  0  0  0  0  0  0
   20.5096  -17.1489    0.0000 C   0  0  0  0  0  0  0  0  0  0  0  0
   20.6490  -15.7322    0.0000 O   0  0  0  0  0  0  0  0  0  0  0  0
   21.3270  -17.2294    0.0000 S   0  0  0  0  0  0  0  0  0  0  0  0
   21.6639  -17.9781    0.0000 C   0  0  0  0  0  0  0  0  0  0  0  0
   22.4812  -18.0585    0.0000 C   0  0  0  0  0  0  0  0  0  0  0  0
   22.8182  -18.8072    0.0000 N   0  0  0  0  0  0  0  0  0  0  0  0
   22.9617  -17.3904    0.0000 O   0  0  0  0  0  0  0  0  0  0  0  0
   23.6355  -18.8876    0.0000 C   0  0  0  0  0  0  0  0  0  0  0  0
   24.0522  -19.5933    0.0000 N   0  0  0  0  0  0  0  0  0  0  0  0
   24.8546  -19.4144    0.0000 N   0  0  0  0  0  0  0  0  0  0  0  0
   24.9351  -18.5970    0.0000 C   0  0  0  0  0  0  0  0  0  0  0  0
   24.1824  -18.2693    0.0000 C   0  0  0  0  0  0  0  0  0  0  0  0
   25.6396  -18.1852    0.0000 C   0  0  0  0  0  0  0  0  0  0  0  0
   26.3542  -18.5911    0.0000 C   0  0  0  0  0  0  0  0  0  0  0  0
   27.0630  -18.1788    0.0000 C   0  0  0  0  0  0  0  0  0  0  0  0
   27.0585  -17.3567    0.0000 C   0  0  0  0  0  0  0  0  0  0  0  0
   26.3391  -16.9485    0.0000 C   0  0  0  0  0  0  0  0  0  0  0  0
   25.6332  -17.3672    0.0000 C   0  0  0  0  0  0  0  0  0  0  0  0
   23.7238  -20.3386    0.0000 C   0  0  0  0  0  0  0  0  0  0  0  0
   22.9063  -20.4327    0.0000 C   0  0  0  0  0  0  0  0  0  0  0  0
   22.5792  -21.1807    0.0000 C   0  0  0  0  0  0  0  0  0  0  0  0
   23.0685  -21.8435    0.0000 C   0  0  0  0  0  0  0  0  0  0  0  0
   23.8886  -21.7493    0.0000 C   0  0  0  0  0  0  0  0  0  0  0  0
   24.2120  -20.9970    0.0000 C   0  0  0  0  0  0  0  0  0  0  0  0
   24.9178  -16.9608    0.0000 C   0  0  0  0  0  0  0  0  0  0  0  0
   27.7631  -16.9387    0.0000 C   0  0  0  0  0  0  0  0  0  0  0  0
   27.7731  -18.5834    0.0000 C   0  0  0  0  0  0  0  0  0  0  0  0
   19.3513  -16.3157    0.0000 N   0  0  0  0  0  0  0  0  0  0  0  0
   19.0143  -15.5712    0.0000 C   0  0  0  0  0  0  0  0  0  0  0  0
   19.4917  -14.9066    0.0000 C   0  0  0  0  0  0  0  0  0  0  0  0
   19.1555  -14.1585    0.0000 C   0  0  0  0  0  0  0  0  0  0  0  0
   18.1996  -15.4919    0.0000 C   0  0  0  0  0  0  0  0  0  0  0  0
   17.8565  -14.7506    0.0000 C   0  0  0  0  0  0  0  0  0  0  0  0
   18.3386  -14.0801    0.0000 C   0  0  0  0  0  0  0  0  0  0  0  0
   17.9962  -13.3309    0.0000 C   0  0  0  0  0  0  0  0  0  0  0  0
   17.1761  -13.2511    0.0000 C   0  0  0  0  0  0  0  0  0  0  0  0
   16.6996  -13.9265    0.0000 C   0  0  0  0  0  0  0  0  0  0  0  0
   17.0405  -14.6689    0.0000 C   0  0  0  0  0  0  0  0  0  0  0  0
  1  2  1  0
  1  3  2  0
  2  4  1  0
  4  5  1  0
  5  6  1  0
  6  7  1  0
  6  8  2  0
  7  9  1  0
  9 10  1  0
 10 11  1  0
 11 12  2  0
 12 13  1  0
 13  9  2  0
 14 15  2  0
 15 16  1  0
 16 17  2  0
 17 18  1  0
 18 19  2  0
 19 14  1  0
 12 14  1  0
 20 21  2  0
 21 22  1  0
 22 23  2  0
 23 24  1  0
 24 25  2  0
 25 20  1  0
 10 20  1  0
 19 26  1  0
 17 27  1  0
 16 28  1  0
  1 29  1  0
 29 30  1  0
 30 31  2  0
 31 32  1  0
 32 35  2  0
 34 33  2  0
 33 30  1  0
 34 35  1  0
 35 36  1  0
 36 37  2  0
 37 38  1  0
 38 39  2  0
 39 34  1  0
M  END
>  <Curated_InChIs>  (199) 
InChI=1S/C32H30N4O2S/c1-21-15-23(3)28(16-22(21)2)29-18-30(36(35-29)27-11-5-4-6-12-27)34-32(38)20-39-19-31(37)33-26-14-13-24-9-7-8-10-25(24)17-26/h4-18H,19-20H2,1-3H3,(H,33,37)(H,34,38)

>  <threshold>  (199) 
5

>  <pchembl>  (199) 
6.82, 7.34, 8.15, 8.7

>  <Classification>  (199) 
1

>  <source>  (199) 
chembl_28

>  <SMILES>  (199) 
Cc1cc(C)c(-c2cc(NC(=O)CSCC(=O)Nc3ccc4ccccc4c3)n(-c3ccccc3)n2)cc1C

>  <InChIKey>  (199) 
RZZKGPAJUROKKG-UHFFFAOYSA-N

$$$$

     RDKit          2D

 61 66  0  0  0  0  0  0  0  0999 V2000
   -2.6111    0.7486    0.0000 C   0  0  0  0  0  0  0  0  0  0  0  0
   -2.6111   -0.7486    0.0000 C   0  0  0  0  0  0  0  0  0  0  0  0
   -1.2964   -1.4973    0.0000 C   0  0  0  0  0  0  0  0  0  0  0  0
   -1.2964    1.4973    0.0000 C   0  0  0  0  0  0  0  0  0  0  0  0
    0.0000    0.7486    0.0000 C   0  0  0  0  0  0  0  0  0  0  0  0
    0.0000   -0.7486    0.0000 C   0  0  0  0  0  0  0  0  0  0  0  0
    1.2964   -1.4973    0.0000 C   0  0  0  0  0  0  0  0  0  0  0  0
    2.5929   -0.7486    0.0000 C   0  0  0  0  0  0  0  0  0  0  0  0
    2.5929    0.7486    0.0000 C   0  0  0  0  0  0  0  0  0  0  0  0
    1.2964    1.4973    0.0000 O   0  0  0  0  0  0  0  0  0  0  0  0
   -1.2907   -2.9981    0.0000 O   0  0  0  0  0  0  0  0  0  0  0  0
   -3.9091    1.5019    0.0000 O   0  0  0  0  0  0  0  0  0  0  0  0
    3.8926    1.4990    0.0000 C   0  0  0  0  0  0  0  0  0  0  0  0
    3.8951    2.9990    0.0000 C   0  0  0  0  0  0  0  0  0  0  0  0
    5.1953    3.7469    0.0000 C   0  0  0  0  0  0  0  0  0  0  0  0
    6.4931    2.9949    0.0000 C   0  0  0  0  0  0  0  0  0  0  0  0
    6.4907    1.4949    0.0000 C   0  0  0  0  0  0  0  0  0  0  0  0
    5.1905    0.7469    0.0000 C   0  0  0  0  0  0  0  0  0  0  0  0
    7.7878    0.7397    0.0000 O   0  0  0  0  0  0  0  0  0  0  0  0
    7.7956    3.7405    0.0000 O   0  0  0  0  0  0  0  0  0  0  0  0
    5.1946    5.2478    0.0000 O   0  0  0  0  0  0  0  0  0  0  0  0
    3.8911   -1.5017    0.0000 O   0  0  0  0  0  0  0  0  0  0  0  0
   -3.9072    2.7019    0.0000 C   0  0  0  0  0  0  0  0  0  0  0  0
   -2.3272   -3.6028    0.0000 C   0  0  0  0  0  0  0  0  0  0  0  0
    4.1555    5.8480    0.0000 C   0  0  0  0  0  0  0  0  0  0  0  0
    8.8331    3.1374    0.0000 C   0  0  0  0  0  0  0  0  0  0  0  0
    7.7841   -0.4603    0.0000 C   0  0  0  0  0  0  0  0  0  0  0  0
    3.8890   -3.0026    0.0000 C   0  0  0  0  0  0  0  0  0  0  0  0
    2.8487   -3.6008    0.0000 O   0  0  0  0  0  0  0  0  0  0  0  0
    5.1872   -3.7556    0.0000 C   0  0  0  0  0  0  0  0  0  0  0  0
    5.1872   -5.2557    0.0000 C   0  0  0  0  0  0  0  0  0  0  0  0
    6.4863   -6.0057    0.0000 C   0  0  0  0  0  0  0  0  0  0  0  0
    7.7853   -5.2557    0.0000 C   0  0  0  0  0  0  0  0  0  0  0  0
    7.7853   -3.7557    0.0000 C   0  0  0  0  0  0  0  0  0  0  0  0
    6.4863   -3.0057    0.0000 C   0  0  0  0  0  0  0  0  0  0  0  0
    8.8245   -5.8558    0.0000 F   0  0  0  0  0  0  0  0  0  0  0  0
    9.0836   -3.0027    0.0000 N   0  0  0  0  0  0  0  0  0  0  0  0
    9.0815   -1.5018    0.0000 C   0  0  0  0  0  0  0  0  0  0  0  0
   10.3797   -0.7488    0.0000 C   0  0  0  0  0  0  0  0  0  0  0  0
    8.0412   -0.9036    0.0000 O   0  0  0  0  0  0  0  0  0  0  0  0
   10.3798    0.7512    0.0000 C   0  0  0  0  0  0  0  0  0  0  0  0
   11.6788    1.5012    0.0000 C   0  0  0  0  0  0  0  0  0  0  0  0
   12.9779    0.7512    0.0000 C   0  0  0  0  0  0  0  0  0  0  0  0
   12.9779   -0.7488    0.0000 C   0  0  0  0  0  0  0  0  0  0  0  0
   11.6788   -1.4988    0.0000 C   0  0  0  0  0  0  0  0  0  0  0  0
   14.0171    1.3512    0.0000 F   0  0  0  0  0  0  0  0  0  0  0  0
   14.2761   -1.5018    0.0000 N   0  0  0  0  0  0  0  0  0  0  0  0
   14.2739   -3.0027    0.0000 C   0  0  0  0  0  0  0  0  0  0  0  0
   15.5721   -3.7558    0.0000 C   0  0  0  0  0  0  0  0  0  0  0  0
   13.2337   -3.6009    0.0000 O   0  0  0  0  0  0  0  0  0  0  0  0
   15.5722   -5.2558    0.0000 C   0  0  0  0  0  0  0  0  0  0  0  0
   16.8712   -6.0058    0.0000 C   0  0  0  0  0  0  0  0  0  0  0  0
   18.1703   -5.2558    0.0000 C   0  0  0  0  0  0  0  0  0  0  0  0
   18.1703   -3.7558    0.0000 C   0  0  0  0  0  0  0  0  0  0  0  0
   16.8713   -3.0058    0.0000 C   0  0  0  0  0  0  0  0  0  0  0  0
   19.4716   -6.0036    0.0000 O   0  0  0  0  0  0  0  0  0  0  0  0
   20.5100   -5.4021    0.0000 C   0  0  0  0  0  0  0  0  0  0  0  0
   19.4685   -3.0028    0.0000 O   0  0  0  0  0  0  0  0  0  0  0  0
   19.4669   -1.8028    0.0000 C   0  0  0  0  0  0  0  0  0  0  0  0
   16.8681   -7.5066    0.0000 O   0  0  0  0  0  0  0  0  0  0  0  0
   15.8280   -8.1051    0.0000 C   0  0  0  0  0  0  0  0  0  0  0  0
  1  2  2  0
  2  3  1  0
  3  6  2  0
  5  4  2  0
  4  1  1  0
  5  6  1  0
  5 10  1  0
  6  7  1  0
  7  8  1  0
  8  9  1  0
  9 10  1  0
  3 11  1  0
  1 12  1  0
 13 14  2  0
 14 15  1  0
 15 16  2  0
 16 17  1  0
 17 18  2  0
 18 13  1  0
  9 13  1  6
 17 19  1  0
 16 20  1  0
 15 21  1  0
  8 22  1  6
 12 23  1  0
 11 24  1  0
 21 25  1  0
 20 26  1  0
 19 27  1  0
 22 28  1  0
 28 29  2  0
 28 30  1  0
 30 31  2  0
 31 32  1  0
 32 33  2  0
 33 34  1  0
 34 35  2  0
 35 30  1  0
 33 36  1  0
 34 37  1  0
 37 38  1  0
 38 39  1  0
 38 40  2  0
 39 41  2  0
 41 42  1  0
 42 43  2  0
 43 44  1  0
 44 45  2  0
 45 39  1  0
 43 46  1  0
 44 47  1  0
 47 48  1  0
 48 49  1  0
 48 50  2  0
 49 51  2  0
 51 52  1  0
 52 53  2  0
 53 54  1  0
 54 55  2  0
 55 49  1  0
 56 57  1  0
 53 56  1  0
 58 59  1  0
 54 58  1  0
 60 61  1  0
 52 60  1  0
M  END
>  <Curated_InChIs>  (200) 
InChI=1S/C44H42F2N2O13/c1-52-26-19-32(53-2)27-21-38(39(60-33(27)20-26)24-15-34(54-3)40(58-7)35(16-24)55-4)61-44(51)23-10-12-29(46)31(14-23)47-42(49)22-9-11-28(45)30(13-22)48-43(50)25-17-36(56-5)41(59-8)37(18-25)57-6/h9-20,38-39H,21H2,1-8H3,(H,47,49)(H,48,50)

>  <threshold>  (200) 
5

>  <pchembl>  (200) 
7.87

>  <Classification>  (200) 
1

>  <source>  (200) 
chembl_28

>  <SMILES>  (200) 
COc1cc(OC)c2c(c1)O[C@H](c1cc(OC)c(OC)c(OC)c1)[C@H](OC(=O)c1ccc(F)c(NC(=O)c3ccc(F)c(NC(=O)c4cc(OC)c(OC)c(OC)c4)c3)c1)C2

>  <InChIKey>  (200) 
SCOMCZNDFDQIFC-LJEWAXOPSA-N

$$$$

     RDKit          2D

 27 30  0  0  0  0  0  0  0  0999 V2000
    1.9054  -11.8492    0.0000 C   0  0  0  0  0  0  0  0  0  0  0  0
    1.9042  -12.6688    0.0000 C   0  0  0  0  0  0  0  0  0  0  0  0
    2.6123  -13.0777    0.0000 C   0  0  0  0  0  0  0  0  0  0  0  0
    2.6105  -11.4404    0.0000 C   0  0  0  0  0  0  0  0  0  0  0  0
    3.3191  -11.8456    0.0000 C   0  0  0  0  0  0  0  0  0  0  0  0
    3.3198  -12.6647    0.0000 C   0  0  0  0  0  0  0  0  0  0  0  0
    4.0284  -13.0717    0.0000 N   0  0  0  0  0  0  0  0  0  0  0  0
    4.7366  -12.6609    0.0000 C   0  0  0  0  0  0  0  0  0  0  0  0
    4.7319  -11.8388    0.0000 N   0  0  0  0  0  0  0  0  0  0  0  0
    4.0228  -11.4354    0.0000 C   0  0  0  0  0  0  0  0  0  0  0  0
    4.0185  -10.6182    0.0000 N   0  0  0  0  0  0  0  0  0  0  0  0
    4.7240  -10.2059    0.0000 C   0  0  0  0  0  0  0  0  0  0  0  0
    5.4293  -10.6141    0.0000 C   0  0  0  0  0  0  0  0  0  0  0  0
    6.1343  -10.2024    0.0000 C   0  0  0  0  0  0  0  0  0  0  0  0
    6.1304   -9.3844    0.0000 C   0  0  0  0  0  0  0  0  0  0  0  0
    5.4156   -8.9797    0.0000 C   0  0  0  0  0  0  0  0  0  0  0  0
    4.7135   -9.3937    0.0000 C   0  0  0  0  0  0  0  0  0  0  0  0
    5.4424  -13.0627    0.0000 C   0  0  0  0  0  0  0  0  0  0  0  0
    5.4442  -13.8810    0.0000 C   0  0  0  0  0  0  0  0  0  0  0  0
    6.1527  -14.2867    0.0000 N   0  0  0  0  0  0  0  0  0  0  0  0
    6.8598  -13.8753    0.0000 C   0  0  0  0  0  0  0  0  0  0  0  0
    6.8540  -13.0539    0.0000 C   0  0  0  0  0  0  0  0  0  0  0  0
    6.1449  -12.6519    0.0000 C   0  0  0  0  0  0  0  0  0  0  0  0
    5.4084   -8.1626    0.0000 O   0  0  0  0  0  0  0  0  0  0  0  0
    6.1125   -7.7477    0.0000 C   0  0  0  0  0  0  0  0  0  0  0  0
    6.8354   -8.9711    0.0000 O   0  0  0  0  0  0  0  0  0  0  0  0
    7.5458   -9.3750    0.0000 C   0  0  0  0  0  0  0  0  0  0  0  0
  1  2  2  0
  2  3  1  0
  3  6  2  0
  5  4  2  0
  4  1  1  0
  5  6  1  0
  6  7  1  0
  7  8  2  0
  8  9  1  0
  9 10  2  0
 10  5  1  0
 10 11  1  0
 11 12  1  0
 12 13  2  0
 13 14  1  0
 14 15  2  0
 15 16  1  0
 16 17  2  0
 17 12  1  0
 18 19  2  0
 19 20  1  0
 20 21  2  0
 21 22  1  0
 22 23  2  0
 23 18  1  0
  8 18  1  0
 16 24  1  0
 24 25  1  0
 15 26  1  0
 26 27  1  0
M  END
>  <Curated_InChIs>  (201) 
InChI=1S/C21H18N4O2/c1-26-18-10-9-15(12-19(18)27-2)23-21-16-7-3-4-8-17(16)24-20(25-21)14-6-5-11-22-13-14/h3-13H,1-2H3,(H,23,24,25)

>  <threshold>  (201) 
5

>  <pchembl>  (201) 
5.51

>  <Classification>  (201) 
1

>  <source>  (201) 
chembl_28

>  <SMILES>  (201) 
COc1ccc(Nc2nc(-c3cccnc3)nc3ccccc23)cc1OC

>  <InChIKey>  (201) 
SNJHGKXCZUYMSO-UHFFFAOYSA-N

$$$$

     RDKit          2D

 36 40  0  0  0  0  0  0  0  0999 V2000
    2.3847  -22.1851    0.0000 C   0  0  0  0  0  0  0  0  0  0  0  0
    3.1000  -22.5942    0.0000 C   0  0  0  0  0  0  0  0  0  0  0  0
    3.0988  -23.4270    0.0000 C   0  0  0  0  0  0  0  0  0  0  0  0
    3.8155  -23.8421    0.0000 S   0  0  0  0  0  0  0  0  0  0  0  0
    3.8178  -22.1764    0.0000 C   0  0  0  0  0  0  0  0  0  0  0  0
    4.5391  -22.5962    0.0000 C   0  0  0  0  0  0  0  0  0  0  0  0
    4.5378  -23.4249    0.0000 C   0  0  0  0  0  0  0  0  0  0  0  0
    5.2537  -23.8386    0.0000 C   0  0  0  0  0  0  0  0  0  0  0  0
    5.9714  -23.4247    0.0000 C   0  0  0  0  0  0  0  0  0  0  0  0
    5.9686  -22.5928    0.0000 C   0  0  0  0  0  0  0  0  0  0  0  0
    5.2522  -22.1829    0.0000 C   0  0  0  0  0  0  0  0  0  0  0  0
    6.6862  -23.8361    0.0000 N   0  0  0  0  0  0  0  0  0  0  0  0
    6.6873  -24.6608    0.0000 C   0  0  0  0  0  0  0  0  0  0  0  0
    7.3999  -23.4227    0.0000 C   0  0  0  0  0  0  0  0  0  0  0  0
    3.8204  -21.3509    0.0000 C   0  0  0  0  0  0  0  0  0  0  0  0
    4.4886  -20.8671    0.0000 C   0  0  0  0  0  0  0  0  0  0  0  0
    4.2337  -20.0818    0.0000 C   0  0  0  0  0  0  0  0  0  0  0  0
    3.4077  -20.0830    0.0000 C   0  0  0  0  0  0  0  0  0  0  0  0
    3.1551  -20.8691    0.0000 S   0  0  0  0  0  0  0  0  0  0  0  0
    2.9900  -19.3719    0.0000 C   0  0  0  0  0  0  0  0  0  0  0  0
    3.3970  -18.6546    0.0000 N   0  0  0  0  0  0  0  0  0  0  0  0
    2.1652  -19.3779    0.0000 O   0  0  0  0  0  0  0  0  0  0  0  0
    4.2218  -18.6484    0.0000 C   0  0  0  0  0  0  0  0  0  0  0  0
    2.9794  -17.9433    0.0000 C   0  0  0  0  0  0  0  0  0  0  0  0
    3.3864  -17.2261    0.0000 C   0  0  0  0  0  0  0  0  0  0  0  0
    4.6288  -17.9311    0.0000 C   0  0  0  0  0  0  0  0  0  0  0  0
    2.3865  -23.8377    0.0000 C   0  0  0  0  0  0  0  0  0  0  0  0
    0.9614  -24.6543    0.0000 C   0  0  0  0  0  0  0  0  0  0  0  0
    0.9656  -23.8321    0.0000 N   0  0  0  0  0  0  0  0  0  0  0  0
    1.6733  -23.4263    0.0000 C   0  0  0  0  0  0  0  0  0  0  0  0
    1.6756  -22.6150    0.0000 C   0  0  0  0  0  0  0  0  0  0  0  0
    0.9719  -22.2033    0.0000 C   0  0  0  0  0  0  0  0  0  0  0  0
    0.2641  -22.6092    0.0000 C   0  0  0  0  0  0  0  0  0  0  0  0
    0.2601  -23.4267    0.0000 C   0  0  0  0  0  0  0  0  0  0  0  0
    0.5540  -21.4856    0.0000 C   0  0  0  0  0  0  0  0  0  0  0  0
    1.3788  -21.4856    0.0000 C   0  0  0  0  0  0  0  0  0  0  0  0
 27  3  2  0
  2  1  2  0
  1 31  1  0
  2  3  1  0
  2  5  1  0
  3  4  1  0
  4  7  1  0
  6  5  2  0
  6  7  1  0
  7  8  2  0
  8  9  1  0
  9 10  1  0
 10 11  2  0
 11  6  1  0
  9 12  2  3
 12 13  1  0
 12 14  1  0
 16 17  1  0
 15 16  2  0
 17 18  2  0
 18 19  1  0
 19 15  1  0
  5 15  1  0
 18 20  1  0
 20 21  1  0
 20 22  2  0
 21 23  1  0
 21 24  1  0
 24 25  1  0
 23 26  1  0
 27 30  1  0
 29 28  1  0
 29 30  1  0
 29 34  1  0
 30 31  2  0
 31 32  1  0
 32 33  1  0
 33 34  1  0
 32 35  1  0
 32 36  1  0
M  CHG  1  12   1
M  END
>  <Curated_InChIs>  (202) 
InChI=1S/C30H36N3OS2/c1-8-33(9-2)29(34)25-13-12-24(35-25)28-20-11-10-19(31(5)6)16-26(20)36-27-18-23-22(17-21(27)28)30(3,4)14-15-32(23)7/h10-13,16-18H,8-9,14-15H2,1-7H3

>  <threshold>  (202) 
5

>  <pchembl>  (202) 
5.15, 5.1

>  <Classification>  (202) 
1

>  <source>  (202) 
chembl_28

>  <SMILES>  (202) 
CCN(CC)C(=O)c1ccc(-c2c3ccc(=[N+](C)C)cc-3sc3cc4c(cc23)C(C)(C)CCN4C)s1

>  <InChIKey>  (202) 
SOZSRBDJYQBSFH-UHFFFAOYSA-N

$$$$

     RDKit          2D

 38 42  0  0  0  0  0  0  0  0999 V2000
    3.0485  -18.7543    0.0000 C   0  0  0  0  0  0  0  0  0  0  0  0
    3.0474  -19.5739    0.0000 C   0  0  0  0  0  0  0  0  0  0  0  0
    3.7554  -19.9828    0.0000 C   0  0  0  0  0  0  0  0  0  0  0  0
    3.7536  -18.3455    0.0000 C   0  0  0  0  0  0  0  0  0  0  0  0
    4.4622  -18.7507    0.0000 C   0  0  0  0  0  0  0  0  0  0  0  0
    4.4611  -19.5714    0.0000 C   0  0  0  0  0  0  0  0  0  0  0  0
    5.1673  -19.9804    0.0000 C   0  0  0  0  0  0  0  0  0  0  0  0
    5.8792  -19.5734    0.0000 C   0  0  0  0  0  0  0  0  0  0  0  0
    5.8803  -18.7527    0.0000 N   0  0  0  0  0  0  0  0  0  0  0  0
    5.1696  -18.3392    0.0000 C   0  0  0  0  0  0  0  0  0  0  0  0
    6.5890  -18.3459    0.0000 C   0  0  0  0  0  0  0  0  0  0  0  0
    7.2957  -18.7562    0.0000 C   0  0  0  0  0  0  0  0  0  0  0  0
    8.0044  -18.3493    0.0000 C   0  0  0  0  0  0  0  0  0  0  0  0
    2.3407  -18.3459    0.0000 O   0  0  0  0  0  0  0  0  0  0  0  0
    1.6331  -18.7547    0.0000 C   0  0  0  0  0  0  0  0  0  0  0  0
    2.3393  -19.9819    0.0000 O   0  0  0  0  0  0  0  0  0  0  0  0
    1.6319  -19.5728    0.0000 C   0  0  0  0  0  0  0  0  0  0  0  0
    8.7111  -18.7596    0.0000 C   0  0  0  0  0  0  0  0  0  0  0  0
    9.4198  -18.3527    0.0000 C   0  0  0  0  0  0  0  0  0  0  0  0
   10.1266  -18.7630    0.0000 O   0  0  0  0  0  0  0  0  0  0  0  0
   10.8362  -18.3579    0.0000 C   0  0  0  0  0  0  0  0  0  0  0  0
   11.5412  -18.7712    0.0000 C   0  0  0  0  0  0  0  0  0  0  0  0
   11.5442  -17.1367    0.0000 C   0  0  0  0  0  0  0  0  0  0  0  0
   10.8379  -17.5436    0.0000 C   0  0  0  0  0  0  0  0  0  0  0  0
   12.2549  -17.5487    0.0000 C   0  0  0  0  0  0  0  0  0  0  0  0
   12.2465  -18.3637    0.0000 C   0  0  0  0  0  0  0  0  0  0  0  0
   12.9443  -18.7763    0.0000 O   0  0  0  0  0  0  0  0  0  0  0  0
   13.6549  -18.3782    0.0000 C   0  0  0  0  0  0  0  0  0  0  0  0
   13.6633  -17.5632    0.0000 C   0  0  0  0  0  0  0  0  0  0  0  0
   12.9611  -17.1461    0.0000 C   0  0  0  0  0  0  0  0  0  0  0  0
   14.3578  -18.7951    0.0000 O   0  0  0  0  0  0  0  0  0  0  0  0
   14.3756  -17.1626    0.0000 C   0  0  0  0  0  0  0  0  0  0  0  0
   15.0766  -17.5817    0.0000 C   0  0  0  0  0  0  0  0  0  0  0  0
   15.7884  -17.1818    0.0000 C   0  0  0  0  0  0  0  0  0  0  0  0
   15.7981  -16.3638    0.0000 C   0  0  0  0  0  0  0  0  0  0  0  0
   15.0900  -15.9473    0.0000 C   0  0  0  0  0  0  0  0  0  0  0  0
   14.3811  -16.3496    0.0000 C   0  0  0  0  0  0  0  0  0  0  0  0
   12.9684  -16.3289    0.0000 C   0  0  0  0  0  0  0  0  0  0  0  0
  1  2  2  0
  2  3  1  0
  3  6  2  0
  5  4  2  0
  4  1  1  0
  5  6  1  0
  5 10  1  0
  6  7  1  0
  7  8  1  0
  8  9  1  0
  9 10  1  0
  9 11  1  0
 11 12  1  0
 12 13  1  0
  1 14  1  0
 14 15  1  0
  2 16  1  0
 16 17  1  0
 13 18  1  0
 18 19  1  0
 19 20  1  0
 20 21  1  0
 21 22  2  0
 22 26  1  0
 25 23  1  0
 23 24  2  0
 24 21  1  0
 25 26  2  0
 25 30  1  0
 26 27  1  0
 27 28  1  0
 28 29  1  0
 29 30  2  0
 28 31  2  0
 29 32  1  0
 32 33  2  0
 33 34  1  0
 34 35  2  0
 35 36  1  0
 36 37  2  0
 37 32  1  0
 30 38  1  0
M  END
>  <Curated_InChIs>  (203) 
InChI=1S/C32H35NO5/c1-22-27-13-12-26(20-28(27)38-32(34)31(22)23-10-6-4-7-11-23)37-17-9-5-8-15-33-16-14-24-18-29(35-2)30(36-3)19-25(24)21-33/h4,6-7,10-13,18-20H,5,8-9,14-17,21H2,1-3H3

>  <threshold>  (203) 
5

>  <pchembl>  (203) 
6.66

>  <Classification>  (203) 
1

>  <source>  (203) 
chembl_28

>  <SMILES>  (203) 
COc1cc2c(cc1OC)CN(CCCCCOc1ccc3c(C)c(-c4ccccc4)c(=O)oc3c1)CC2

>  <InChIKey>  (203) 
STGJFKMXOJBUDO-UHFFFAOYSA-N

$$$$

     RDKit          2D

 33 36  0  0  0  0  0  0  0  0999 V2000
    3.0237  -12.7492    0.0000 C   0  0  0  0  0  0  0  0  0  0  0  0
    3.0226  -13.5688    0.0000 C   0  0  0  0  0  0  0  0  0  0  0  0
    3.7306  -13.9777    0.0000 C   0  0  0  0  0  0  0  0  0  0  0  0
    3.7289  -12.3404    0.0000 C   0  0  0  0  0  0  0  0  0  0  0  0
    4.4375  -12.7456    0.0000 C   0  0  0  0  0  0  0  0  0  0  0  0
    4.4363  -13.5663    0.0000 C   0  0  0  0  0  0  0  0  0  0  0  0
    5.1425  -13.9753    0.0000 C   0  0  0  0  0  0  0  0  0  0  0  0
    5.8544  -13.5683    0.0000 C   0  0  0  0  0  0  0  0  0  0  0  0
    5.8555  -12.7476    0.0000 N   0  0  0  0  0  0  0  0  0  0  0  0
    5.1448  -12.3340    0.0000 C   0  0  0  0  0  0  0  0  0  0  0  0
    6.5642  -12.3407    0.0000 C   0  0  0  0  0  0  0  0  0  0  0  0
    7.2710  -12.7511    0.0000 C   0  0  0  0  0  0  0  0  0  0  0  0
    7.9797  -12.3442    0.0000 C   0  0  0  0  0  0  0  0  0  0  0  0
    2.3159  -12.3408    0.0000 O   0  0  0  0  0  0  0  0  0  0  0  0
    1.6083  -12.7496    0.0000 C   0  0  0  0  0  0  0  0  0  0  0  0
    2.3146  -13.9768    0.0000 O   0  0  0  0  0  0  0  0  0  0  0  0
    1.6072  -13.5676    0.0000 C   0  0  0  0  0  0  0  0  0  0  0  0
    8.6864  -12.7545    0.0000 C   0  0  0  0  0  0  0  0  0  0  0  0
    9.3951  -12.3476    0.0000 C   0  0  0  0  0  0  0  0  0  0  0  0
   10.1018  -12.7579    0.0000 O   0  0  0  0  0  0  0  0  0  0  0  0
   10.8115  -12.3528    0.0000 C   0  0  0  0  0  0  0  0  0  0  0  0
   11.5165  -12.7660    0.0000 C   0  0  0  0  0  0  0  0  0  0  0  0
   11.5194  -11.1316    0.0000 C   0  0  0  0  0  0  0  0  0  0  0  0
   10.8131  -11.5384    0.0000 C   0  0  0  0  0  0  0  0  0  0  0  0
   12.2301  -11.5435    0.0000 C   0  0  0  0  0  0  0  0  0  0  0  0
   12.2217  -12.3586    0.0000 C   0  0  0  0  0  0  0  0  0  0  0  0
   12.9195  -12.7711    0.0000 O   0  0  0  0  0  0  0  0  0  0  0  0
   13.6302  -12.3731    0.0000 C   0  0  0  0  0  0  0  0  0  0  0  0
   13.6386  -11.5581    0.0000 C   0  0  0  0  0  0  0  0  0  0  0  0
   12.9363  -11.1410    0.0000 C   0  0  0  0  0  0  0  0  0  0  0  0
   14.3331  -12.7900    0.0000 O   0  0  0  0  0  0  0  0  0  0  0  0
   14.3509  -11.1575    0.0000 Br  0  0  0  0  0  0  0  0  0  0  0  0
   12.9436  -10.3238    0.0000 C   0  0  0  0  0  0  0  0  0  0  0  0
  1  2  2  0
  2  3  1  0
  3  6  2  0
  5  4  2  0
  4  1  1  0
  5  6  1  0
  5 10  1  0
  6  7  1  0
  7  8  1  0
  8  9  1  0
  9 10  1  0
  9 11  1  0
 11 12  1  0
 12 13  1  0
  1 14  1  0
 14 15  1  0
  2 16  1  0
 16 17  1  0
 13 18  1  0
 18 19  1  0
 19 20  1  0
 20 21  1  0
 21 22  2  0
 22 26  1  0
 25 23  1  0
 23 24  2  0
 24 21  1  0
 25 26  2  0
 25 30  1  0
 26 27  1  0
 27 28  1  0
 28 29  1  0
 29 30  2  0
 28 31  2  0
 29 32  1  0
 30 33  1  0
M  END
>  <Curated_InChIs>  (204) 
InChI=1S/C26H30BrNO5/c1-17-21-8-7-20(15-22(21)33-26(29)25(17)27)32-12-6-4-5-10-28-11-9-18-13-23(30-2)24(31-3)14-19(18)16-28/h7-8,13-15H,4-6,9-12,16H2,1-3H3

>  <threshold>  (204) 
5

>  <pchembl>  (204) 
6.55

>  <Classification>  (204) 
1

>  <source>  (204) 
chembl_28

>  <SMILES>  (204) 
COc1cc2c(cc1OC)CN(CCCCCOc1ccc3c(C)c(Br)c(=O)oc3c1)CC2

>  <InChIKey>  (204) 
SVZFJRJPPXMZOB-UHFFFAOYSA-N

$$$$

     RDKit          2D

 34 38  0  0  0  0  0  0  0  0999 V2000
   18.7500   -3.7888    0.0000 C   0  0  0  0  0  0  0  0  0  0  0  0
   18.7500   -4.6101    0.0000 C   0  0  0  0  0  0  0  0  0  0  0  0
   19.4594   -5.0187    0.0000 O   0  0  0  0  0  0  0  0  0  0  0  0
   19.4594   -3.3761    0.0000 C   0  0  0  0  0  0  0  0  0  0  0  0
   20.1647   -3.7888    0.0000 C   0  0  0  0  0  0  0  0  0  0  0  0
   20.1631   -4.6083    0.0000 C   0  0  0  0  0  0  0  0  0  0  0  0
   20.8714   -5.0197    0.0000 C   0  0  0  0  0  0  0  0  0  0  0  0
   21.5819   -4.6086    0.0000 C   0  0  0  0  0  0  0  0  0  0  0  0
   21.5795   -3.7860    0.0000 C   0  0  0  0  0  0  0  0  0  0  0  0
   20.8706   -3.3824    0.0000 C   0  0  0  0  0  0  0  0  0  0  0  0
   19.4594   -2.5506    0.0000 O   0  0  0  0  0  0  0  0  0  0  0  0
   18.0388   -5.0239    0.0000 O   0  0  0  0  0  0  0  0  0  0  0  0
   17.3263   -4.6122    0.0000 C   0  0  0  0  0  0  0  0  0  0  0  0
   16.6151   -5.0259    0.0000 C   0  0  0  0  0  0  0  0  0  0  0  0
   15.9027   -4.6142    0.0000 N   0  0  0  0  0  0  0  0  0  0  0  0
   16.6163   -5.8472    0.0000 O   0  0  0  0  0  0  0  0  0  0  0  0
   15.1914   -5.0280    0.0000 C   0  0  0  0  0  0  0  0  0  0  0  0
   13.7740   -5.8499    0.0000 C   0  0  0  0  0  0  0  0  0  0  0  0
   14.4914   -6.2573    0.0000 C   0  0  0  0  0  0  0  0  0  0  0  0
   15.1951   -5.8460    0.0000 C   0  0  0  0  0  0  0  0  0  0  0  0
   18.0394   -3.3844    0.0000 C   0  0  0  0  0  0  0  0  0  0  0  0
   18.0383   -2.5620    0.0000 C   0  0  0  0  0  0  0  0  0  0  0  0
   17.3261   -2.1514    0.0000 C   0  0  0  0  0  0  0  0  0  0  0  0
   16.6145   -2.5662    0.0000 C   0  0  0  0  0  0  0  0  0  0  0  0
   16.6195   -3.3918    0.0000 C   0  0  0  0  0  0  0  0  0  0  0  0
   17.3323   -3.7945    0.0000 C   0  0  0  0  0  0  0  0  0  0  0  0
   13.7732   -5.0277    0.0000 C   0  0  0  0  0  0  0  0  0  0  0  0
   14.4841   -4.6193    0.0000 C   0  0  0  0  0  0  0  0  0  0  0  0
   14.4863   -3.8028    0.0000 C   0  0  0  0  0  0  0  0  0  0  0  0
   13.7785   -3.3938    0.0000 C   0  0  0  0  0  0  0  0  0  0  0  0
   13.0669   -3.8031    0.0000 C   0  0  0  0  0  0  0  0  0  0  0  0
   13.0681   -4.6182    0.0000 C   0  0  0  0  0  0  0  0  0  0  0  0
   15.9009   -2.1565    0.0000 O   0  0  0  0  0  0  0  0  0  0  0  0
   15.8975   -1.3352    0.0000 C   0  0  0  0  0  0  0  0  0  0  0  0
  1  2  2  0
  1  4  1  0
  2  3  1  0
  3  6  1  0
  5  4  1  0
  5  6  2  0
  6  7  1  0
  7  8  2  0
  8  9  1  0
  9 10  2  0
 10  5  1  0
  4 11  2  0
  2 12  1  0
 12 13  1  0
 13 14  1  0
 14 15  1  0
 14 16  2  0
 15 17  1  0
 17 28  2  0
 27 18  2  0
 18 19  1  0
 19 20  2  0
 20 17  1  0
 21 22  2  0
 22 23  1  0
 23 24  2  0
 24 25  1  0
 25 26  2  0
 26 21  1  0
  1 21  1  0
 27 28  1  0
 28 29  1  0
 29 30  2  0
 30 31  1  0
 31 32  2  0
 32 27  1  0
 24 33  1  0
 33 34  1  0
M  END
>  <Curated_InChIs>  (205) 
InChI=1S/C28H21NO5/c1-32-20-15-13-19(14-16-20)26-27(31)22-10-4-5-12-24(22)34-28(26)33-17-25(30)29-23-11-6-8-18-7-2-3-9-21(18)23/h2-16H,17H2,1H3,(H,29,30)

>  <threshold>  (205) 
5

>  <pchembl>  (205) 
5.85

>  <Classification>  (205) 
1

>  <source>  (205) 
chembl_28

>  <SMILES>  (205) 
COc1ccc(-c2c(OCC(=O)Nc3cccc4ccccc34)oc3ccccc3c2=O)cc1

>  <InChIKey>  (205) 
SXOSJLKWNDDRLF-UHFFFAOYSA-N

$$$$

     RDKit          2D

 29 30  0  0  0  0  0  0  0  0999 V2000
   40.6683  -16.8143    0.0000 C   0  0  0  0  0  0  0  0  0  0  0  0
   40.6671  -17.6338    0.0000 C   0  0  0  0  0  0  0  0  0  0  0  0
   41.3752  -18.0428    0.0000 C   0  0  0  0  0  0  0  0  0  0  0  0
   42.0849  -17.6334    0.0000 C   0  0  0  0  0  0  0  0  0  0  0  0
   42.0820  -16.8107    0.0000 C   0  0  0  0  0  0  0  0  0  0  0  0
   41.3734  -16.4054    0.0000 C   0  0  0  0  0  0  0  0  0  0  0  0
   42.7882  -16.3994    0.0000 C   0  0  0  0  0  0  0  0  0  0  0  0
   43.4974  -16.8054    0.0000 C   0  0  0  0  0  0  0  0  0  0  0  0
   44.2036  -16.3941    0.0000 C   0  0  0  0  0  0  0  0  0  0  0  0
   44.9128  -16.8000    0.0000 C   0  0  0  0  0  0  0  0  0  0  0  0
   44.9128  -17.6161    0.0000 C   0  0  0  0  0  0  0  0  0  0  0  0
   45.6212  -18.0219    0.0000 C   0  0  0  0  0  0  0  0  0  0  0  0
   46.3284  -17.6106    0.0000 C   0  0  0  0  0  0  0  0  0  0  0  0
   46.3227  -16.7892    0.0000 C   0  0  0  0  0  0  0  0  0  0  0  0
   45.6137  -16.3871    0.0000 C   0  0  0  0  0  0  0  0  0  0  0  0
   42.7932  -18.0408    0.0000 O   0  0  0  0  0  0  0  0  0  0  0  0
   39.9591  -18.0419    0.0000 O   0  0  0  0  0  0  0  0  0  0  0  0
   39.9605  -16.4059    0.0000 C   0  0  0  0  0  0  0  0  0  0  0  0
   41.3710  -15.5882    0.0000 O   0  0  0  0  0  0  0  0  0  0  0  0
   42.7945  -18.8580    0.0000 C   0  0  0  0  0  0  0  0  0  0  0  0
   42.7851  -15.5822    0.0000 O   0  0  0  0  0  0  0  0  0  0  0  0
   39.9585  -18.8591    0.0000 C   0  0  0  0  0  0  0  0  0  0  0  0
   39.2529  -16.8146    0.0000 C   0  0  0  0  0  0  0  0  0  0  0  0
   38.5451  -16.4062    0.0000 C   0  0  0  0  0  0  0  0  0  0  0  0
   37.8375  -16.8150    0.0000 C   0  0  0  0  0  0  0  0  0  0  0  0
   38.5449  -15.5890    0.0000 C   0  0  0  0  0  0  0  0  0  0  0  0
   45.6241  -18.8423    0.0000 N   0  0  0  0  0  0  0  0  0  0  0  0
   46.3331  -19.2486    0.0000 O   0  0  0  0  0  0  0  0  0  0  0  0
   44.9177  -19.2532    0.0000 O   0  0  0  0  0  0  0  0  0  0  0  0
  1  2  2  0
  2  3  1  0
  3  4  2  0
  4  5  1  0
  5  6  2  0
  6  1  1  0
  5  7  1  0
  7  8  1  0
  8  9  2  0
  9 10  1  0
 10 11  2  0
 11 12  1  0
 12 13  2  0
 13 14  1  0
 14 15  2  0
 15 10  1  0
  4 16  1  0
  2 17  1  0
  1 18  1  0
  6 19  1  0
 16 20  1  0
  7 21  2  0
 17 22  1  0
 18 23  1  0
 23 24  2  3
 24 25  1  0
 24 26  1  0
 27 28  2  0
 27 29  1  0
 12 27  1  0
M  CHG  2  27   1  29  -1
M  END
>  <Curated_InChIs>  (206) 
InChI=1S/C22H23NO6/c1-14(2)8-10-17-19(28-3)13-20(29-4)21(22(17)25)18(24)11-9-15-6-5-7-16(12-15)23(26)27/h5-9,11-13,25H,10H2,1-4H3

>  <threshold>  (206) 
5

>  <pchembl>  (206) 
5.05

>  <Classification>  (206) 
1

>  <source>  (206) 
chembl_28

>  <SMILES>  (206) 
COc1cc(OC)c(C(=O)/C=C/c2cccc([N+](=O)[O-])c2)c(O)c1CC=C(C)C

>  <InChIKey>  (206) 
SXPLKVHIRVEZMW-PKNBQFBNSA-N

$$$$

     RDKit          2D

 29 32  0  0  0  0  0  0  0  0999 V2000
   11.0472  -20.1243    0.0000 C   0  0  0  0  0  0  0  0  0  0  0  0
   11.0460  -20.9439    0.0000 C   0  0  0  0  0  0  0  0  0  0  0  0
   11.7541  -21.3528    0.0000 C   0  0  0  0  0  0  0  0  0  0  0  0
   11.7523  -19.7155    0.0000 C   0  0  0  0  0  0  0  0  0  0  0  0
   12.4609  -20.1207    0.0000 C   0  0  0  0  0  0  0  0  0  0  0  0
   12.4617  -20.9397    0.0000 C   0  0  0  0  0  0  0  0  0  0  0  0
   13.1702  -21.3468    0.0000 N   0  0  0  0  0  0  0  0  0  0  0  0
   13.8785  -20.9360    0.0000 C   0  0  0  0  0  0  0  0  0  0  0  0
   13.8737  -20.1139    0.0000 N   0  0  0  0  0  0  0  0  0  0  0  0
   13.1646  -19.7105    0.0000 C   0  0  0  0  0  0  0  0  0  0  0  0
   13.1603  -18.8933    0.0000 N   0  0  0  0  0  0  0  0  0  0  0  0
   13.8658  -18.4810    0.0000 C   0  0  0  0  0  0  0  0  0  0  0  0
   14.5711  -18.8892    0.0000 C   0  0  0  0  0  0  0  0  0  0  0  0
   15.2762  -18.4775    0.0000 C   0  0  0  0  0  0  0  0  0  0  0  0
   15.2723  -17.6595    0.0000 C   0  0  0  0  0  0  0  0  0  0  0  0
   14.5574  -17.2548    0.0000 C   0  0  0  0  0  0  0  0  0  0  0  0
   13.8553  -17.6688    0.0000 C   0  0  0  0  0  0  0  0  0  0  0  0
   14.5842  -21.3378    0.0000 C   0  0  0  0  0  0  0  0  0  0  0  0
   14.5860  -22.1560    0.0000 C   0  0  0  0  0  0  0  0  0  0  0  0
   15.2945  -22.5618    0.0000 C   0  0  0  0  0  0  0  0  0  0  0  0
   16.0016  -22.1504    0.0000 N   0  0  0  0  0  0  0  0  0  0  0  0
   15.9958  -21.3290    0.0000 C   0  0  0  0  0  0  0  0  0  0  0  0
   15.2868  -20.9269    0.0000 C   0  0  0  0  0  0  0  0  0  0  0  0
   15.9772  -17.2462    0.0000 O   0  0  0  0  0  0  0  0  0  0  0  0
   16.6876  -17.6501    0.0000 C   0  0  0  0  0  0  0  0  0  0  0  0
   14.5502  -16.4377    0.0000 C   0  0  0  0  0  0  0  0  0  0  0  0
   15.2543  -16.0228    0.0000 F   0  0  0  0  0  0  0  0  0  0  0  0
   13.8389  -16.0353    0.0000 F   0  0  0  0  0  0  0  0  0  0  0  0
   14.5444  -15.6174    0.0000 F   0  0  0  0  0  0  0  0  0  0  0  0
  1  2  2  0
  2  3  1  0
  3  6  2  0
  5  4  2  0
  4  1  1  0
  5  6  1  0
  6  7  1  0
  7  8  2  0
  8  9  1  0
  9 10  2  0
 10  5  1  0
 10 11  1  0
 11 12  1  0
 12 13  2  0
 13 14  1  0
 14 15  2  0
 15 16  1  0
 16 17  2  0
 17 12  1  0
 18 19  2  0
 19 20  1  0
 20 21  2  0
 21 22  1  0
 22 23  2  0
 23 18  1  0
  8 18  1  0
 15 24  1  0
 24 25  1  0
 16 26  1  0
 26 27  1  0
 26 28  1  0
 26 29  1  0
M  END
>  <Curated_InChIs>  (207) 
InChI=1S/C21H15F3N4O/c1-29-18-7-6-14(12-16(18)21(22,23)24)26-20-15-4-2-3-5-17(15)27-19(28-20)13-8-10-25-11-9-13/h2-12H,1H3,(H,26,27,28)

>  <threshold>  (207) 
5

>  <pchembl>  (207) 
5.56

>  <Classification>  (207) 
1

>  <source>  (207) 
chembl_28

>  <SMILES>  (207) 
COc1ccc(Nc2nc(-c3ccncc3)nc3ccccc23)cc1C(F)(F)F

>  <InChIKey>  (207) 
TWQHWJBUHDBUTM-UHFFFAOYSA-N

$$$$

     RDKit          2D

 26 26  0  0  0  0  0  0  0  0999 V2000
   18.5024   -8.6094    0.0000 C   0  0  0  0  0  0  0  0  0  0  0  0
   19.2142   -8.2008    0.0000 C   0  0  0  0  0  0  0  0  0  0  0  0
   19.9260   -8.6094    0.0000 N   0  0  0  0  0  0  0  0  0  0  0  0
   19.2142   -7.3795    0.0000 O   0  0  0  0  0  0  0  0  0  0  0  0
   17.7905   -8.2008    0.0000 N   0  0  0  0  0  0  0  0  0  0  0  0
   18.5024   -9.4307    0.0000 C   0  0  0  0  0  0  0  0  0  0  0  0
   17.7905   -9.8434    0.0000 C   0  0  0  0  0  0  0  0  0  0  0  0
   17.0844   -9.4259    0.0000 C   0  0  0  0  0  0  0  0  0  0  0  0
   16.3730   -9.8380    0.0000 C   0  0  0  0  0  0  0  0  0  0  0  0
   16.3726  -10.6602    0.0000 C   0  0  0  0  0  0  0  0  0  0  0  0
   17.0894  -11.0686    0.0000 C   0  0  0  0  0  0  0  0  0  0  0  0
   17.7937  -10.6583    0.0000 C   0  0  0  0  0  0  0  0  0  0  0  0
   15.6613  -11.0697    0.0000 O   0  0  0  0  0  0  0  0  0  0  0  0
   20.6379   -8.2008    0.0000 C   0  0  0  0  0  0  0  0  0  0  0  0
   21.3497   -8.6094    0.0000 C   0  0  0  0  0  0  0  0  0  0  0  0
   20.6379   -7.3795    0.0000 C   0  0  0  0  0  0  0  0  0  0  0  0
   21.3497   -6.9668    0.0000 O   0  0  0  0  0  0  0  0  0  0  0  0
   22.0615   -8.2008    0.0000 N   0  0  0  0  0  0  0  0  0  0  0  0
   21.3497   -9.4307    0.0000 O   0  0  0  0  0  0  0  0  0  0  0  0
   22.7693   -8.6094    0.0000 C   0  0  0  0  0  0  0  0  0  0  0  0
   23.4811   -8.2008    0.0000 C   0  0  0  0  0  0  0  0  0  0  0  0
   22.7693   -9.4307    0.0000 C   0  0  0  0  0  0  0  0  0  0  0  0
   22.0615   -9.8434    0.0000 C   0  0  0  0  0  0  0  0  0  0  0  0
   23.4811   -9.8434    0.0000 C   0  0  0  0  0  0  0  0  0  0  0  0
   24.1929   -8.6094    0.0000 O   0  0  0  0  0  0  0  0  0  0  0  0
   23.4811   -7.3795    0.0000 O   0  0  0  0  0  0  0  0  0  0  0  0
  1  2  1  0
  2  3  1  0
  2  4  2  0
  1  5  1  6
  1  6  1  0
  6  7  1  0
  7  8  2  0
  8  9  1  0
  9 10  2  0
 10 11  1  0
 11 12  2  0
 12  7  1  0
 10 13  1  0
  3 14  1  0
 14 15  1  0
 14 16  1  1
 16 17  1  0
 15 18  1  0
 15 19  2  0
 20 18  1  6
 20 21  1  0
 20 22  1  0
 22 23  1  0
 22 24  1  0
 21 25  1  0
 21 26  2  0
M  END
>  <Curated_InChIs>  (208) 
InChI=1S/C17H25N3O6/c1-9(2)14(17(25)26)20-16(24)13(8-21)19-15(23)12(18)7-10-3-5-11(22)6-4-10/h3-6,9,12-14,21-22H,7-8,18H2,1-2H3,(H,19,23)(H,20,24)(H,25,26)

>  <threshold>  (208) 
5

>  <pchembl>  (208) 
6.16

>  <Classification>  (208) 
1

>  <source>  (208) 
chembl_28

>  <SMILES>  (208) 
CC(C)[C@H](NC(=O)[C@H](CO)NC(=O)[C@@H](N)Cc1ccc(O)cc1)C(=O)O

>  <InChIKey>  (208) 
TYFLVOUZHQUBGM-IHRRRGAJSA-N

$$$$

     RDKit          2D

 29 33  0  0  0  0  0  0  0  0999 V2000
   33.7758  -19.2163    0.0000 C   0  0  0  0  0  0  0  0  0  0  0  0
   33.7747  -20.0359    0.0000 C   0  0  0  0  0  0  0  0  0  0  0  0
   34.4827  -20.4448    0.0000 C   0  0  0  0  0  0  0  0  0  0  0  0
   34.4809  -18.8075    0.0000 C   0  0  0  0  0  0  0  0  0  0  0  0
   35.1896  -19.2127    0.0000 C   0  0  0  0  0  0  0  0  0  0  0  0
   35.1898  -20.0359    0.0000 C   0  0  0  0  0  0  0  0  0  0  0  0
   35.9728  -20.2901    0.0000 N   0  0  0  0  0  0  0  0  0  0  0  0
   35.9724  -18.9582    0.0000 C   0  0  0  0  0  0  0  0  0  0  0  0
   36.4566  -19.6253    0.0000 C   0  0  0  0  0  0  0  0  0  0  0  0
   37.2718  -19.5400    0.0000 C   0  0  0  0  0  0  0  0  0  0  0  0
   37.6093  -18.7886    0.0000 N   0  0  0  0  0  0  0  0  0  0  0  0
   37.1251  -18.1215    0.0000 C   0  0  0  0  0  0  0  0  0  0  0  0
   36.3035  -18.2058    0.0000 C   0  0  0  0  0  0  0  0  0  0  0  0
   38.4222  -18.7047    0.0000 C   0  0  0  0  0  0  0  0  0  0  0  0
   38.9013  -19.3668    0.0000 O   0  0  0  0  0  0  0  0  0  0  0  0
   38.7560  -17.9588    0.0000 C   0  0  0  0  0  0  0  0  0  0  0  0
   39.5691  -17.8790    0.0000 C   0  0  0  0  0  0  0  0  0  0  0  0
   39.9029  -17.1339    0.0000 C   0  0  0  0  0  0  0  0  0  0  0  0
   39.4236  -16.4709    0.0000 C   0  0  0  0  0  0  0  0  0  0  0  0
   38.6068  -16.5578    0.0000 C   0  0  0  0  0  0  0  0  0  0  0  0
   38.2768  -17.3031    0.0000 C   0  0  0  0  0  0  0  0  0  0  0  0
   37.7518  -20.1987    0.0000 C   0  0  0  0  0  0  0  0  0  0  0  0
   37.4163  -20.9451    0.0000 C   0  0  0  0  0  0  0  0  0  0  0  0
   37.8947  -21.6067    0.0000 C   0  0  0  0  0  0  0  0  0  0  0  0
   38.7085  -21.5231    0.0000 C   0  0  0  0  0  0  0  0  0  0  0  0
   39.0416  -20.7723    0.0000 C   0  0  0  0  0  0  0  0  0  0  0  0
   38.5612  -20.1138    0.0000 C   0  0  0  0  0  0  0  0  0  0  0  0
   39.7564  -15.7245    0.0000 O   0  0  0  0  0  0  0  0  0  0  0  0
   40.5692  -15.6396    0.0000 C   0  0  0  0  0  0  0  0  0  0  0  0
  1  2  2  0
  2  3  1  0
  3  6  2  0
  5  4  2  0
  4  1  1  0
  5  6  1  0
  6  7  1  0
  7  9  1  0
  8  5  1  0
  8  9  2  0
  8 13  1  0
  9 10  1  0
 10 11  1  0
 11 12  1  0
 12 13  1  0
 11 14  1  0
 14 15  2  0
 14 16  1  0
 16 17  2  0
 17 18  1  0
 18 19  2  0
 19 20  1  0
 20 21  2  0
 21 16  1  0
 22 23  2  0
 23 24  1  0
 24 25  2  0
 25 26  1  0
 26 27  2  0
 27 22  1  0
 10 22  1  0
 19 28  1  0
 28 29  1  0
M  END
>  <Curated_InChIs>  (209) 
InChI=1S/C25H22N2O2/c1-29-19-13-11-18(12-14-19)25(28)27-16-15-21-20-9-5-6-10-22(20)26-23(21)24(27)17-7-3-2-4-8-17/h2-14,24,26H,15-16H2,1H3

>  <threshold>  (209) 
5

>  <pchembl>  (209) 
5.02

>  <Classification>  (209) 
1

>  <source>  (209) 
chembl_28

>  <SMILES>  (209) 
COc1ccc(C(=O)N2CCc3c([nH]c4ccccc34)C2c2ccccc2)cc1

>  <InChIKey>  (209) 
UDMGVMZJVDQOGN-UHFFFAOYSA-N

$$$$

     RDKit          2D

 52 55  0  0  0  0  0  0  0  0999 V2000
   17.8090   -2.5259    0.0000 C   0  0  0  0  0  0  0  0  0  0  0  0
   17.4045   -3.2357    0.0000 C   0  0  0  0  0  0  0  0  0  0  0  0
   18.2215   -3.2311    0.0000 C   0  0  0  0  0  0  0  0  0  0  0  0
   15.4310   -4.0562    0.0000 C   0  0  0  0  0  0  0  0  0  0  0  0
   16.0062   -2.6574    0.0000 C   0  0  0  0  0  0  0  0  0  0  0  0
   16.0063   -4.6314    0.0000 C   0  0  0  0  0  0  0  0  0  0  0  0
   16.8259   -4.6314    0.0000 C   0  0  0  0  0  0  0  0  0  0  0  0
   17.4052   -4.0562    0.0000 C   0  0  0  0  0  0  0  0  0  0  0  0
   16.8259   -2.6573    0.0000 C   0  0  0  0  0  0  0  0  0  0  0  0
   12.7655   -3.0665    0.0000 C   0  0  0  0  0  0  0  0  0  0  0  0
   13.2524   -2.4078    0.0000 C   0  0  0  0  0  0  0  0  0  0  0  0
   13.2456   -3.7374    0.0000 C   0  0  0  0  0  0  0  0  0  0  0  0
   12.8414   -4.4481    0.0000 O   0  0  0  0  0  0  0  0  0  0  0  0
   13.6144   -1.9531    0.0000 O   0  0  0  0  0  0  0  0  0  0  0  0
   14.0319   -3.4826    0.0000 C   0  0  0  0  0  0  0  0  0  0  0  0
   14.0320   -2.6629    0.0000 C   0  0  0  0  0  0  0  0  0  0  0  0
   14.6086   -2.0863    0.0000 C   0  0  0  0  0  0  0  0  0  0  0  0
   14.6087   -4.0592    0.0000 C   0  0  0  0  0  0  0  0  0  0  0  0
   16.0050   -3.4825    0.0000 C   0  0  0  0  0  0  0  0  0  0  0  0
   15.4283   -2.0862    0.0000 C   0  0  0  0  0  0  0  0  0  0  0  0
   14.2958   -1.3313    0.0000 O   0  0  0  0  0  0  0  0  0  0  0  0
   15.7410   -1.3312    0.0000 C   0  0  0  0  0  0  0  0  0  0  0  0
   18.1597   -4.3700    0.0000 O   0  0  0  0  0  0  0  0  0  0  0  0
   15.6936   -5.3864    0.0000 O   0  0  0  0  0  0  0  0  0  0  0  0
   16.1055   -6.0924    0.0000 C   0  0  0  0  0  0  0  0  0  0  0  0
   15.7002   -6.8020    0.0000 C   0  0  0  0  0  0  0  0  0  0  0  0
   16.9226   -6.0886    0.0000 O   0  0  0  0  0  0  0  0  0  0  0  0
   17.2447   -5.3326    0.0000 O   0  0  0  0  0  0  0  0  0  0  0  0
   12.0242   -4.4536    0.0000 C   0  0  0  0  0  0  0  0  0  0  0  0
   11.6204   -5.1641    0.0000 C   0  0  0  0  0  0  0  0  0  0  0  0
   11.6108   -3.7487    0.0000 O   0  0  0  0  0  0  0  0  0  0  0  0
   14.2974   -4.8148    0.0000 O   0  0  0  0  0  0  0  0  0  0  0  0
   14.2926   -5.6295    0.0000 C   0  0  0  0  0  0  0  0  0  0  0  0
   14.9979   -6.0423    0.0000 O   0  0  0  0  0  0  0  0  0  0  0  0
   13.5825   -6.0339    0.0000 C   0  0  0  0  0  0  0  0  0  0  0  0
   11.9484   -3.0603    0.0000 C   0  0  0  0  0  0  0  0  0  0  0  0
   12.7972   -1.9599    0.0000 C   0  0  0  0  0  0  0  0  0  0  0  0
   12.3828   -1.2556    0.0000 O   0  0  0  0  0  0  0  0  0  0  0  0
   12.3945   -2.6709    0.0000 C   0  0  0  0  0  0  0  0  0  0  0  0
   18.0618   -5.3205    0.0000 C   0  0  0  0  0  0  0  0  0  0  0  0
   18.4809   -6.0221    0.0000 C   0  0  0  0  0  0  0  0  0  0  0  0
   18.4599   -4.6068    0.0000 O   0  0  0  0  0  0  0  0  0  0  0  0
   10.8031   -5.1646    0.0000 C   0  0  0  0  0  0  0  0  0  0  0  0
   10.3994   -5.8742    0.0000 C   0  0  0  0  0  0  0  0  0  0  0  0
   10.8128   -6.5801    0.0000 C   0  0  0  0  0  0  0  0  0  0  0  0
   11.6342   -6.5719    0.0000 C   0  0  0  0  0  0  0  0  0  0  0  0
   12.0342   -5.8617    0.0000 C   0  0  0  0  0  0  0  0  0  0  0  0
   14.8823   -6.8029    0.0000 C   0  0  0  0  0  0  0  0  0  0  0  0
   14.4771   -7.5117    0.0000 C   0  0  0  0  0  0  0  0  0  0  0  0
   14.8890   -8.2185    0.0000 C   0  0  0  0  0  0  0  0  0  0  0  0
   15.7104   -8.2120    0.0000 C   0  0  0  0  0  0  0  0  0  0  0  0
   16.1119   -7.5027    0.0000 C   0  0  0  0  0  0  0  0  0  0  0  0
  2  1  1  0
  3  2  1  0
  4  6  1  0
  6  7  1  0
  7  8  1  0
  8  2  1  0
  2  9  1  0
  9  5  2  0
 16 11  1  0
 11 10  1  0
 10 12  1  0
 12 15  1  0
 12 13  1  1
 16 14  1  1
 15 16  1  0
 16 17  1  0
 15 18  1  1
 18  4  1  0
  4 19  2  0
  5 20  1  0
 20 17  1  0
 17 21  2  0
 20 22  1  1
  8 23  2  0
  6 24  1  1
 24 25  1  0
 25 26  1  0
 25 27  2  0
  7 28  1  6
 13 29  1  0
 29 30  1  0
 29 31  2  0
 18 32  1  6
 32 33  1  0
 33 34  2  0
 33 35  1  0
 10 36  1  1
 14 37  1  0
 37 38  2  0
 37 39  1  0
 28 40  1  0
 40 41  1  0
 40 42  2  0
 30 43  2  0
 43 44  1  0
 44 45  2  0
 45 46  1  0
 46 47  2  0
 47 30  1  0
 26 48  2  0
 48 49  1  0
 49 50  2  0
 50 51  1  0
 51 52  2  0
 52 26  1  0
M  END
>  <Curated_InChIs>  (210) 
InChI=1S/C40H44O12/c1-22-19-20-39(7,8)36(45)34(49-26(5)42)33(51-38(47)29-17-13-10-14-18-29)24(3)32(48-25(4)41)30-31(50-37(46)28-15-11-9-12-16-28)23(2)21-40(30,35(22)44)52-27(6)43/h9-20,22-23,30-34H,3,21H2,1-2,4-8H3

>  <threshold>  (210) 
5

>  <pchembl>  (210) 
5.1

>  <Classification>  (210) 
1

>  <source>  (210) 
chembl_28

>  <SMILES>  (210) 
C=C1[C@H](OC(=O)c2ccccc2)[C@@H](OC(C)=O)C(=O)C(C)(C)/C=C/[C@H](C)C(=O)[C@@]2(OC(C)=O)C[C@H](C)[C@H](OC(=O)c3ccccc3)[C@@H]2[C@H]1OC(C)=O

>  <InChIKey>  (210) 
UFRHFFWBQGUJRF-DLDQNYCJSA-N

$$$$

     RDKit          2D

 38 42  0  0  0  0  0  0  0  0999 V2000
   20.7886  -15.7439    0.0000 C   0  0  0  0  0  0  0  0  0  0  0  0
   21.4982  -15.3345    0.0000 C   0  0  0  0  0  0  0  0  0  0  0  0
   21.4954  -14.5118    0.0000 C   0  0  0  0  0  0  0  0  0  0  0  0
   20.7868  -14.1066    0.0000 C   0  0  0  0  0  0  0  0  0  0  0  0
   22.2066  -15.7420    0.0000 N   0  0  0  0  0  0  0  0  0  0  0  0
   22.9137  -15.3323    0.0000 C   0  0  0  0  0  0  0  0  0  0  0  0
   23.6220  -15.7398    0.0000 C   0  0  0  0  0  0  0  0  0  0  0  0
   24.3291  -15.3300    0.0000 S   0  0  0  0  0  0  0  0  0  0  0  0
   22.9124  -14.5151    0.0000 O   0  0  0  0  0  0  0  0  0  0  0  0
   25.0374  -15.7375    0.0000 C   0  0  0  0  0  0  0  0  0  0  0  0
   25.7445  -15.3278    0.0000 C   0  0  0  0  0  0  0  0  0  0  0  0
   26.4528  -15.7353    0.0000 N   0  0  0  0  0  0  0  0  0  0  0  0
   25.7432  -14.5106    0.0000 O   0  0  0  0  0  0  0  0  0  0  0  0
   27.1599  -15.3256    0.0000 C   0  0  0  0  0  0  0  0  0  0  0  0
   27.9047  -15.6544    0.0000 N   0  0  0  0  0  0  0  0  0  0  0  0
   28.4506  -15.0462    0.0000 N   0  0  0  0  0  0  0  0  0  0  0  0
   28.0408  -14.3391    0.0000 C   0  0  0  0  0  0  0  0  0  0  0  0
   27.2418  -14.5104    0.0000 C   0  0  0  0  0  0  0  0  0  0  0  0
   28.3712  -13.5949    0.0000 C   0  0  0  0  0  0  0  0  0  0  0  0
   29.1850  -13.5094    0.0000 C   0  0  0  0  0  0  0  0  0  0  0  0
   29.5162  -12.7631    0.0000 C   0  0  0  0  0  0  0  0  0  0  0  0
   29.0346  -12.1018    0.0000 C   0  0  0  0  0  0  0  0  0  0  0  0
   28.2181  -12.1917    0.0000 C   0  0  0  0  0  0  0  0  0  0  0  0
   27.8907  -12.9381    0.0000 C   0  0  0  0  0  0  0  0  0  0  0  0
   27.0783  -13.0271    0.0000 C   0  0  0  0  0  0  0  0  0  0  0  0
   29.3647  -11.3543    0.0000 C   0  0  0  0  0  0  0  0  0  0  0  0
   30.3288  -12.6768    0.0000 C   0  0  0  0  0  0  0  0  0  0  0  0
   28.0779  -16.4515    0.0000 C   0  0  0  0  0  0  0  0  0  0  0  0
   27.4702  -16.9995    0.0000 C   0  0  0  0  0  0  0  0  0  0  0  0
   27.6415  -17.7978    0.0000 C   0  0  0  0  0  0  0  0  0  0  0  0
   28.4200  -18.0492    0.0000 C   0  0  0  0  0  0  0  0  0  0  0  0
   29.0273  -17.4961    0.0000 C   0  0  0  0  0  0  0  0  0  0  0  0
   28.8529  -16.6999    0.0000 C   0  0  0  0  0  0  0  0  0  0  0  0
   20.0805  -15.3350    0.0000 C   0  0  0  0  0  0  0  0  0  0  0  0
   20.0772  -14.5185    0.0000 C   0  0  0  0  0  0  0  0  0  0  0  0
   19.2997  -14.2692    0.0000 N   0  0  0  0  0  0  0  0  0  0  0  0
   18.8223  -14.9318    0.0000 C   0  0  0  0  0  0  0  0  0  0  0  0
   19.3050  -15.5903    0.0000 S   0  0  0  0  0  0  0  0  0  0  0  0
 34  1  2  0
  1  2  1  0
  2  3  2  0
  3  4  1  0
  4 35  2  0
  2  5  1  0
  5  6  1  0
  6  7  1  0
  7  8  1  0
  6  9  2  0
  8 10  1  0
 10 11  1  0
 11 12  1  0
 11 13  2  0
 12 14  1  0
 14 15  1  0
 15 16  1  0
 16 17  2  0
 17 18  1  0
 18 14  2  0
 19 20  2  0
 20 21  1  0
 21 22  2  0
 22 23  1  0
 23 24  2  0
 24 19  1  0
 17 19  1  0
 24 25  1  0
 22 26  1  0
 21 27  1  0
 28 29  2  0
 29 30  1  0
 30 31  2  0
 31 32  1  0
 32 33  2  0
 33 28  1  0
 15 28  1  0
 34 35  1  0
 35 36  1  0
 36 37  2  0
 37 38  1  0
 38 34  1  0
M  END
>  <Curated_InChIs>  (211) 
InChI=1S/C29H27N5O2S2/c1-18-11-20(3)23(12-19(18)2)25-14-27(34(33-25)22-7-5-4-6-8-22)32-29(36)16-37-15-28(35)31-21-9-10-24-26(13-21)38-17-30-24/h4-14,17H,15-16H2,1-3H3,(H,31,35)(H,32,36)

>  <threshold>  (211) 
5

>  <pchembl>  (211) 
6.76, 9.11, 7.47, 8.54

>  <Classification>  (211) 
1

>  <source>  (211) 
chembl_28

>  <SMILES>  (211) 
Cc1cc(C)c(-c2cc(NC(=O)CSCC(=O)Nc3ccc4ncsc4c3)n(-c3ccccc3)n2)cc1C

>  <InChIKey>  (211) 
UHBHMCUEAHAUJJ-UHFFFAOYSA-N

$$$$

     RDKit          2D

 24 27  0  0  0  0  0  0  0  0999 V2000
    0.1931    0.5119    0.0000 N   0  0  0  0  0  0  0  0  0  0  0  0
    0.9076    1.7494    0.0000 N   0  0  0  0  0  0  0  0  0  0  0  0
    0.9076   -0.7256    0.0000 N   0  0  0  0  0  0  0  0  0  0  0  0
    1.6221    0.5119    0.0000 C   0  0  0  0  0  0  0  0  0  0  0  0
    0.9076    0.0994    0.0000 C   0  0  0  0  0  0  0  0  0  0  0  0
    1.6221    1.3369    0.0000 C   0  0  0  0  0  0  0  0  0  0  0  0
    0.1931    1.3369    0.0000 C   0  0  0  0  0  0  0  0  0  0  0  0
   -0.5214    1.7494    0.0000 C   0  0  0  0  0  0  0  0  0  0  0  0
    2.3365    0.0994    0.0000 C   0  0  0  0  0  0  0  0  0  0  0  0
    2.3365    1.7494    0.0000 C   0  0  0  0  0  0  0  0  0  0  0  0
    1.6221   -1.1381    0.0000 C   0  0  0  0  0  0  0  0  0  0  0  0
    3.0510    0.5119    0.0000 C   0  0  0  0  0  0  0  0  0  0  0  0
    3.0510    1.3369    0.0000 C   0  0  0  0  0  0  0  0  0  0  0  0
   -1.2358    1.3369    0.0000 C   0  0  0  0  0  0  0  0  0  0  0  0
   -0.5214    2.5744    0.0000 C   0  0  0  0  0  0  0  0  0  0  0  0
    2.3365   -0.7256    0.0000 C   0  0  0  0  0  0  0  0  0  0  0  0
    1.6221   -1.9631    0.0000 C   0  0  0  0  0  0  0  0  0  0  0  0
    3.0510   -1.1381    0.0000 C   0  0  0  0  0  0  0  0  0  0  0  0
   -1.9503    1.7494    0.0000 C   0  0  0  0  0  0  0  0  0  0  0  0
   -1.2358    2.9869    0.0000 C   0  0  0  0  0  0  0  0  0  0  0  0
    2.3365   -2.3756    0.0000 C   0  0  0  0  0  0  0  0  0  0  0  0
    3.0510   -1.9631    0.0000 C   0  0  0  0  0  0  0  0  0  0  0  0
   -1.9503    2.5744    0.0000 C   0  0  0  0  0  0  0  0  0  0  0  0
    3.7655   -0.7256    0.0000 C   0  0  0  0  0  0  0  0  0  0  0  0
  1  5  2  0
  1  7  1  0
  2  6  1  0
  2  7  2  0
  3  5  1  0
  3 11  1  0
  4  5  1  0
  4  6  2  0
  4  9  1  0
  6 10  1  0
  7  8  1  0
  8 14  2  0
  8 15  1  0
  9 12  2  0
 10 13  2  0
 11 16  2  0
 11 17  1  0
 12 13  1  0
 14 19  1  0
 15 20  2  0
 16 18  1  0
 17 21  2  0
 18 22  2  0
 18 24  1  0
 19 23  2  0
 20 23  1  0
 21 22  1  0
M  END
>  <Curated_InChIs>  (212) 
InChI=1S/C21H17N3/c1-15-8-7-11-17(14-15)22-21-18-12-5-6-13-19(18)23-20(24-21)16-9-3-2-4-10-16/h2-14H,1H3,(H,22,23,24)

>  <threshold>  (212) 
5

>  <pchembl>  (212) 
5.52

>  <Classification>  (212) 
1

>  <source>  (212) 
chembl_28

>  <SMILES>  (212) 
Cc1cccc(Nc2nc(-c3ccccc3)nc3ccccc23)c1

>  <InChIKey>  (212) 
UMWJNQQMJJGINS-UHFFFAOYSA-N

$$$$

     RDKit          2D

 53 58  0  0  0  0  0  0  0  0999 V2000
    6.3076   -8.3499    0.0000 C   0  0  0  0  0  0  0  0  0  0  0  0
    6.3076   -9.1743    0.0000 C   0  0  0  0  0  0  0  0  0  0  0  0
    7.0203   -9.5817    0.0000 C   0  0  0  0  0  0  0  0  0  0  0  0
    7.0203   -7.9331    0.0000 C   0  0  0  0  0  0  0  0  0  0  0  0
    7.7329   -8.3499    0.0000 C   0  0  0  0  0  0  0  0  0  0  0  0
    7.7339   -9.1743    0.0000 C   0  0  0  0  0  0  0  0  0  0  0  0
    8.4425   -9.5809    0.0000 C   0  0  0  0  0  0  0  0  0  0  0  0
    9.1593   -9.1724    0.0000 C   0  0  0  0  0  0  0  0  0  0  0  0
    9.1582   -8.3480    0.0000 C   0  0  0  0  0  0  0  0  0  0  0  0
    8.4380   -7.9329    0.0000 C   0  0  0  0  0  0  0  0  0  0  0  0
    7.7247   -9.9893    0.0000 O   0  0  0  0  0  0  0  0  0  0  0  0
    9.1510   -9.9893    0.0000 C   0  0  0  0  0  0  0  0  0  0  0  0
    9.9384   -9.7717    0.0000 C   0  0  0  0  0  0  0  0  0  0  0  0
    9.5540  -10.6932    0.0000 C   0  0  0  0  0  0  0  0  0  0  0  0
    8.4424  -10.4006    0.0000 O   0  0  0  0  0  0  0  0  0  0  0  0
    8.8907   -7.2498    0.0000 O   0  0  0  0  0  0  0  0  0  0  0  0
    7.7247   -7.5302    0.0000 C   0  0  0  0  0  0  0  0  0  0  0  0
    7.0190   -7.1134    0.0000 O   0  0  0  0  0  0  0  0  0  0  0  0
    5.5986   -7.9394    0.0000 O   0  0  0  0  0  0  0  0  0  0  0  0
    4.8869   -8.3533    0.0000 C   0  0  0  0  0  0  0  0  0  0  0  0
    4.1779   -7.9429    0.0000 C   0  0  0  0  0  0  0  0  0  0  0  0
    7.7344  -10.8127    0.0000 C   0  0  0  0  0  0  0  0  0  0  0  0
    7.7343  -11.6324    0.0000 O   0  0  0  0  0  0  0  0  0  0  0  0
    6.9420  -11.0174    0.0000 C   0  0  0  0  0  0  0  0  0  0  0  0
    9.8797   -7.9305    0.0000 O   0  0  0  0  0  0  0  0  0  0  0  0
    8.4424   -7.1062    0.0000 O   0  0  0  0  0  0  0  0  0  0  0  0
    8.4340   -6.2727    0.0000 C   0  0  0  0  0  0  0  0  0  0  0  0
    9.1518   -5.8487    0.0000 C   0  0  0  0  0  0  0  0  0  0  0  0
    7.7080   -5.8631    0.0000 O   0  0  0  0  0  0  0  0  0  0  0  0
    7.0199  -10.4153    0.0000 O   0  0  0  0  0  0  0  0  0  0  0  0
    6.2966   -6.6976    0.0000 C   0  0  0  0  0  0  0  0  0  0  0  0
    6.2954   -5.8640    0.0000 C   0  0  0  0  0  0  0  0  0  0  0  0
    7.0227   -5.4477    0.0000 C   0  0  0  0  0  0  0  0  0  0  0  0
    7.0218   -4.6195    0.0000 C   0  0  0  0  0  0  0  0  0  0  0  0
    6.2988   -4.2025    0.0000 C   0  0  0  0  0  0  0  0  0  0  0  0
    5.5751   -4.6230    0.0000 C   0  0  0  0  0  0  0  0  0  0  0  0
    5.5795   -5.4521    0.0000 C   0  0  0  0  0  0  0  0  0  0  0  0
    9.7243   -7.2454    0.0000 C   0  0  0  0  0  0  0  0  0  0  0  0
   10.1374   -6.5213    0.0000 C   0  0  0  0  0  0  0  0  0  0  0  0
   10.9699   -6.5191    0.0000 C   0  0  0  0  0  0  0  0  0  0  0  0
   11.3829   -5.7959    0.0000 C   0  0  0  0  0  0  0  0  0  0  0  0
   10.9622   -5.0752    0.0000 C   0  0  0  0  0  0  0  0  0  0  0  0
   10.1244   -5.0822    0.0000 C   0  0  0  0  0  0  0  0  0  0  0  0
    9.7151   -5.8060    0.0000 C   0  0  0  0  0  0  0  0  0  0  0  0
    7.0115   -8.7481    0.0000 C   0  0  0  0  0  0  0  0  0  0  0  0
    4.1821   -7.1231    0.0000 C   0  0  0  0  0  0  0  0  0  0  0  0
    3.4739   -6.7127    0.0000 C   0  0  0  0  0  0  0  0  0  0  0  0
    2.7630   -7.1216    0.0000 C   0  0  0  0  0  0  0  0  0  0  0  0
    2.7647   -7.9451    0.0000 C   0  0  0  0  0  0  0  0  0  0  0  0
    3.4734   -8.3518    0.0000 C   0  0  0  0  0  0  0  0  0  0  0  0
    4.8878   -9.1869    0.0000 O   0  0  0  0  0  0  0  0  0  0  0  0
    5.5752   -7.1154    0.0000 O   0  0  0  0  0  0  0  0  0  0  0  0
   10.5219   -7.4561    0.0000 O   0  0  0  0  0  0  0  0  0  0  0  0
 17 26  1  0
 11 12  1  0
 26 27  1  0
  1  2  1  0
 27 28  1  0
 12 13  1  0
 27 29  2  0
  1  4  1  0
  3 30  1  0
 12 14  1  0
 18 31  1  0
  2  3  1  0
 31 32  1  0
  7 15  1  1
 32 33  2  0
  3  6  1  0
 33 34  1  0
 10 16  1  6
 34 35  2  0
  5  4  1  0
 35 36  1  0
  5 17  1  6
 36 37  2  0
 37 32  1  0
  5 10  1  0
 16 38  1  0
  4 18  1  6
 38 39  1  0
  6  7  1  0
 39 40  2  0
  1 19  1  6
 40 41  1  0
  7  8  1  0
 41 42  2  0
 19 20  1  0
 42 43  1  0
  8  9  1  1
 43 44  2  0
 44 39  1  0
 20 21  1  0
  3 45  1  1
  9 10  1  0
 21 46  2  0
 15 22  1  0
 46 47  1  0
  5  6  1  0
 47 48  2  0
 22 23  2  0
 48 49  1  0
  6 11  1  1
 49 50  2  0
 50 21  1  0
 22 24  1  0
 20 51  2  0
  9 25  2  0
 31 52  2  0
  8 12  1  0
 38 53  2  0
M  END
>  <Curated_InChIs>  (213) 
InChI=1S/C40H40O13/c1-23(41)48-22-39-31(51-35(45)26-17-11-7-12-18-26)28(50-34(44)25-15-9-6-10-16-25)21-38(5,47)40(39)32(49-24(2)42)29(37(3,4)53-40)30(43)33(39)52-36(46)27-19-13-8-14-20-27/h6-20,28-29,31-33,47H,21-22H2,1-5H3

>  <threshold>  (213) 
5

>  <pchembl>  (213) 
5.99

>  <Classification>  (213) 
1

>  <source>  (213) 
chembl_28

>  <SMILES>  (213) 
CC(=O)OC[C@]12[C@H](OC(=O)c3ccccc3)C(=O)[C@@H]3[C@@H](OC(C)=O)[C@]1(OC3(C)C)[C@](C)(O)C[C@H](OC(=O)c1ccccc1)[C@@H]2OC(=O)c1ccccc1

>  <InChIKey>  (213) 
UNXHKUBBGHPHHO-MBXJAUQFSA-N

$$$$

     RDKit          2D

 34 37  0  0  0  0  0  0  0  0999 V2000
   10.3731  -20.1100    0.0000 O   0  0  0  0  0  0  0  0  0  0  0  0
   11.0798  -20.5203    0.0000 C   0  0  0  0  0  0  0  0  0  0  0  0
   11.0764  -21.3374    0.0000 C   0  0  0  0  0  0  0  0  0  0  0  0
   12.4913  -20.5193    0.0000 C   0  0  0  0  0  0  0  0  0  0  0  0
   11.7849  -20.1128    0.0000 C   0  0  0  0  0  0  0  0  0  0  0  0
   12.4920  -21.3407    0.0000 C   0  0  0  0  0  0  0  0  0  0  0  0
   11.7829  -21.7427    0.0000 C   0  0  0  0  0  0  0  0  0  0  0  0
   11.7766  -22.5533    0.0000 O   0  0  0  0  0  0  0  0  0  0  0  0
   12.4776  -22.9680    0.0000 C   0  0  0  0  0  0  0  0  0  0  0  0
   13.1867  -22.5660    0.0000 C   0  0  0  0  0  0  0  0  0  0  0  0
   13.1947  -21.7493    0.0000 C   0  0  0  0  0  0  0  0  0  0  0  0
   12.4701  -23.7852    0.0000 O   0  0  0  0  0  0  0  0  0  0  0  0
   13.8907  -22.9809    0.0000 C   0  0  0  0  0  0  0  0  0  0  0  0
   13.9050  -21.3453    0.0000 C   0  0  0  0  0  0  0  0  0  0  0  0
    2.5864  -20.5082    0.0000 C   0  0  0  0  0  0  0  0  0  0  0  0
    2.5852  -21.3277    0.0000 C   0  0  0  0  0  0  0  0  0  0  0  0
    3.2933  -21.7367    0.0000 C   0  0  0  0  0  0  0  0  0  0  0  0
    3.2915  -20.0993    0.0000 C   0  0  0  0  0  0  0  0  0  0  0  0
    4.0001  -20.5046    0.0000 C   0  0  0  0  0  0  0  0  0  0  0  0
    3.9989  -21.3252    0.0000 C   0  0  0  0  0  0  0  0  0  0  0  0
    4.7051  -21.7343    0.0000 C   0  0  0  0  0  0  0  0  0  0  0  0
    5.4170  -21.3272    0.0000 C   0  0  0  0  0  0  0  0  0  0  0  0
    5.4182  -20.5066    0.0000 N   0  0  0  0  0  0  0  0  0  0  0  0
    4.7074  -20.0930    0.0000 C   0  0  0  0  0  0  0  0  0  0  0  0
    6.1269  -20.0997    0.0000 C   0  0  0  0  0  0  0  0  0  0  0  0
    6.8336  -20.5100    0.0000 C   0  0  0  0  0  0  0  0  0  0  0  0
    7.5423  -20.1031    0.0000 C   0  0  0  0  0  0  0  0  0  0  0  0
    8.2490  -20.5134    0.0000 C   0  0  0  0  0  0  0  0  0  0  0  0
    1.8785  -20.0997    0.0000 O   0  0  0  0  0  0  0  0  0  0  0  0
    1.1709  -20.5085    0.0000 C   0  0  0  0  0  0  0  0  0  0  0  0
    1.8772  -21.7357    0.0000 O   0  0  0  0  0  0  0  0  0  0  0  0
    1.1698  -21.3266    0.0000 C   0  0  0  0  0  0  0  0  0  0  0  0
    8.9577  -20.1065    0.0000 C   0  0  0  0  0  0  0  0  0  0  0  0
    9.6644  -20.5168    0.0000 C   0  0  0  0  0  0  0  0  0  0  0  0
  1  2  1  0
  2  3  2  0
  3  7  1  0
  6  4  1  0
  4  5  2  0
  5  2  1  0
  6  7  2  0
  6 11  1  0
  7  8  1  0
  8  9  1  0
  9 10  1  0
 10 11  2  0
  9 12  2  0
 10 13  1  0
 11 14  1  0
 15 16  2  0
 16 17  1  0
 17 20  2  0
 19 18  2  0
 18 15  1  0
 19 20  1  0
 19 24  1  0
 20 21  1  0
 21 22  1  0
 22 23  1  0
 23 24  1  0
 23 25  1  0
 25 26  1  0
 26 27  1  0
 27 28  1  0
 15 29  1  0
 29 30  1  0
 16 31  1  0
 31 32  1  0
 28 33  1  0
 33 34  1  0
 34  1  1  0
M  END
>  <Curated_InChIs>  (214) 
InChI=1S/C28H35NO5/c1-19-20(2)28(30)34-25-17-23(9-10-24(19)25)33-14-8-6-5-7-12-29-13-11-21-15-26(31-3)27(32-4)16-22(21)18-29/h9-10,15-17H,5-8,11-14,18H2,1-4H3

>  <threshold>  (214) 
5

>  <pchembl>  (214) 
6.66

>  <Classification>  (214) 
1

>  <source>  (214) 
chembl_28

>  <SMILES>  (214) 
COc1cc2c(cc1OC)CN(CCCCCCOc1ccc3c(C)c(C)c(=O)oc3c1)CC2

>  <InChIKey>  (214) 
UQWVSJMUZHWGMW-UHFFFAOYSA-N

$$$$

     RDKit          2D

 31 35  0  0  0  0  0  0  0  0999 V2000
   11.7282   -3.6608    0.0000 C   0  0  0  0  0  0  0  0  0  0  0  0
   11.7270   -4.4803    0.0000 C   0  0  0  0  0  0  0  0  0  0  0  0
   12.4351   -4.8893    0.0000 C   0  0  0  0  0  0  0  0  0  0  0  0
   12.4333   -3.2520    0.0000 C   0  0  0  0  0  0  0  0  0  0  0  0
   13.1419   -3.6572    0.0000 C   0  0  0  0  0  0  0  0  0  0  0  0
   13.1422   -4.4804    0.0000 C   0  0  0  0  0  0  0  0  0  0  0  0
   13.9251   -4.7346    0.0000 N   0  0  0  0  0  0  0  0  0  0  0  0
   13.9247   -3.4027    0.0000 C   0  0  0  0  0  0  0  0  0  0  0  0
   14.4089   -4.0698    0.0000 C   0  0  0  0  0  0  0  0  0  0  0  0
   15.2242   -3.9845    0.0000 C   0  0  0  0  0  0  0  0  0  0  0  0
   15.5617   -3.2331    0.0000 N   0  0  0  0  0  0  0  0  0  0  0  0
   15.0775   -2.5660    0.0000 C   0  0  0  0  0  0  0  0  0  0  0  0
   14.2558   -2.6503    0.0000 C   0  0  0  0  0  0  0  0  0  0  0  0
   16.3745   -3.1492    0.0000 C   0  0  0  0  0  0  0  0  0  0  0  0
   16.8536   -3.8112    0.0000 O   0  0  0  0  0  0  0  0  0  0  0  0
   16.7083   -2.4033    0.0000 C   0  0  0  0  0  0  0  0  0  0  0  0
   17.5214   -2.3234    0.0000 C   0  0  0  0  0  0  0  0  0  0  0  0
   17.8552   -1.5784    0.0000 C   0  0  0  0  0  0  0  0  0  0  0  0
   17.3760   -0.9154    0.0000 C   0  0  0  0  0  0  0  0  0  0  0  0
   16.5592   -1.0023    0.0000 C   0  0  0  0  0  0  0  0  0  0  0  0
   16.2291   -1.7476    0.0000 C   0  0  0  0  0  0  0  0  0  0  0  0
   15.7041   -4.6432    0.0000 C   0  0  0  0  0  0  0  0  0  0  0  0
   15.3687   -5.3895    0.0000 C   0  0  0  0  0  0  0  0  0  0  0  0
   15.8470   -6.0511    0.0000 C   0  0  0  0  0  0  0  0  0  0  0  0
   16.6608   -5.9676    0.0000 C   0  0  0  0  0  0  0  0  0  0  0  0
   16.9939   -5.2167    0.0000 C   0  0  0  0  0  0  0  0  0  0  0  0
   16.5135   -4.5583    0.0000 C   0  0  0  0  0  0  0  0  0  0  0  0
   17.8065   -5.1300    0.0000 O   0  0  0  0  0  0  0  0  0  0  0  0
   18.2879   -5.7903    0.0000 C   0  0  0  0  0  0  0  0  0  0  0  0
   17.1408   -6.6290    0.0000 O   0  0  0  0  0  0  0  0  0  0  0  0
   16.8080   -7.3753    0.0000 C   0  0  0  0  0  0  0  0  0  0  0  0
  1  2  2  0
  2  3  1  0
  3  6  2  0
  5  4  2  0
  4  1  1  0
  5  6  1  0
  6  7  1  0
  7  9  1  0
  8  5  1  0
  8  9  2  0
  8 13  1  0
  9 10  1  0
 10 11  1  0
 11 12  1  0
 12 13  1  0
 11 14  1  0
 14 15  2  0
 14 16  1  0
 16 17  2  0
 17 18  1  0
 18 19  2  0
 19 20  1  0
 20 21  2  0
 21 16  1  0
 22 23  2  0
 23 24  1  0
 24 25  2  0
 25 26  1  0
 26 27  2  0
 27 22  1  0
 10 22  1  0
 26 28  1  0
 28 29  1  0
 25 30  1  0
 30 31  1  0
M  END
>  <Curated_InChIs>  (215) 
InChI=1S/C26H24N2O3/c1-30-22-13-12-18(16-23(22)31-2)25-24-20(19-10-6-7-11-21(19)27-24)14-15-28(25)26(29)17-8-4-3-5-9-17/h3-13,16,25,27H,14-15H2,1-2H3

>  <threshold>  (215) 
5

>  <pchembl>  (215) 
5.13

>  <Classification>  (215) 
1

>  <source>  (215) 
chembl_28

>  <SMILES>  (215) 
COc1ccc(C2c3[nH]c4ccccc4c3CCN2C(=O)c2ccccc2)cc1OC

>  <InChIKey>  (215) 
URHAIHPRBSISPW-UHFFFAOYSA-N

$$$$

     RDKit          2D

 23 24  0  0  0  0  0  0  0  0999 V2000
   -1.3833   -0.6417    0.0000 C   0  0  0  0  0  0  0  0  0  0  0  0
   -1.7458   -0.0250    0.0000 C   0  0  0  0  0  0  0  0  0  0  0  0
   -1.0333   -0.0250    0.0000 C   0  0  0  0  0  0  0  0  0  0  0  0
   -2.4500   -0.0250    0.0000 C   0  0  0  0  0  0  0  0  0  0  0  0
   -0.7708   -0.9917    0.0000 C   0  0  0  0  0  0  0  0  0  0  0  0
   -1.9958   -1.0000    0.0000 C   0  0  0  0  0  0  0  0  0  0  0  0
   -2.8083    0.5875    0.0000 N   0  0  0  0  0  0  0  0  0  0  0  0
   -1.3958    0.5875    0.0000 O   0  0  0  0  0  0  0  0  0  0  0  0
   -0.3250   -0.0167    0.0000 C   0  0  0  0  0  0  0  0  0  0  0  0
   -3.5208    0.5875    0.0000 C   0  0  0  0  0  0  0  0  0  0  0  0
   -2.4583    1.2083    0.0000 C   0  0  0  0  0  0  0  0  0  0  0  0
   -2.8083   -0.6375    0.0000 C   0  0  0  0  0  0  0  0  0  0  0  0
   -0.7708   -1.7042    0.0000 C   0  0  0  0  0  0  0  0  0  0  0  0
   -0.1625   -0.6375    0.0000 C   0  0  0  0  0  0  0  0  0  0  0  0
   -1.9958   -1.7125    0.0000 C   0  0  0  0  0  0  0  0  0  0  0  0
   -2.6083   -0.6417    0.0000 C   0  0  0  0  0  0  0  0  0  0  0  0
    0.0167    0.6000    0.0000 C   0  0  0  0  0  0  0  0  0  0  0  0
   -3.2208   -1.0000    0.0000 C   0  0  0  0  0  0  0  0  0  0  0  0
   -2.6083   -2.0667    0.0000 C   0  0  0  0  0  0  0  0  0  0  0  0
   -0.1583   -2.0542    0.0000 C   0  0  0  0  0  0  0  0  0  0  0  0
    0.4500   -0.9875    0.0000 C   0  0  0  0  0  0  0  0  0  0  0  0
    0.4542   -1.7000    0.0000 C   0  0  0  0  0  0  0  0  0  0  0  0
   -3.2208   -1.7125    0.0000 C   0  0  0  0  0  0  0  0  0  0  0  0
  2  1  1  0
  3  1  1  0
  4  2  1  0
  5  1  1  0
  6  1  1  0
  7  4  1  0
  8  3  2  0
  9  3  1  0
 10  7  1  0
 11  7  1  0
 12  4  1  0
 13  5  2  0
 14  5  1  0
 15  6  2  0
 16  6  1  0
 17  9  1  0
 18 16  2  0
 19 15  1  0
 20 13  1  0
 21 14  2  0
 22 21  1  0
 23 19  2  0
 23 18  1  0
 22 20  2  0
M  END
>  <Curated_InChIs>  (216) 
InChI=1S/C21H27NO/c1-5-20(23)21(16-17(2)22(3)4,18-12-8-6-9-13-18)19-14-10-7-11-15-19/h6-15,17H,5,16H2,1-4H3

>  <threshold>  (216) 
5

>  <pchembl>  (216) 
5.12

>  <Classification>  (216) 
1

>  <source>  (216) 
chembl_28

>  <SMILES>  (216) 
CCC(=O)C(CC(C)N(C)C)(c1ccccc1)c1ccccc1

>  <InChIKey>  (216) 
USSIQXCVUWKGNF-UHFFFAOYSA-N

$$$$

     RDKit          2D

 26 28  0  0  0  0  0  0  0  0999 V2000
   -0.0589  -20.3893    0.0000 C   0  0  0  0  0  0  0  0  0  0  0  0
   -0.7734  -20.8018    0.0000 C   0  0  0  0  0  0  0  0  0  0  0  0
   -0.7734  -21.6268    0.0000 C   0  0  0  0  0  0  0  0  0  0  0  0
   -0.0589  -22.0393    0.0000 C   0  0  0  0  0  0  0  0  0  0  0  0
    0.6556  -21.6268    0.0000 C   0  0  0  0  0  0  0  0  0  0  0  0
    0.6556  -20.8018    0.0000 C   0  0  0  0  0  0  0  0  0  0  0  0
    1.3700  -20.3893    0.0000 C   0  0  0  0  0  0  0  0  0  0  0  0
    2.0845  -20.8018    0.0000 C   0  0  0  0  0  0  0  0  0  0  0  0
    2.0845  -21.6268    0.0000 C   0  0  0  0  0  0  0  0  0  0  0  0
    2.7990  -22.0393    0.0000 C   0  0  0  0  0  0  0  0  0  0  0  0
    3.5135  -21.6268    0.0000 N   0  0  0  0  0  0  0  0  0  0  0  0
    3.5135  -20.8018    0.0000 C   0  0  0  0  0  0  0  0  0  0  0  0
    2.7990  -20.3893    0.0000 C   0  0  0  0  0  0  0  0  0  0  0  0
    4.2280  -22.0393    0.0000 C   0  0  0  0  0  0  0  0  0  0  0  0
    4.9424  -21.6268    0.0000 C   0  0  0  0  0  0  0  0  0  0  0  0
    5.6569  -22.0393    0.0000 C   0  0  0  0  0  0  0  0  0  0  0  0
    6.3714  -21.6268    0.0000 C   0  0  0  0  0  0  0  0  0  0  0  0
    7.0859  -22.0393    0.0000 C   0  0  0  0  0  0  0  0  0  0  0  0
    7.8003  -21.6268    0.0000 C   0  0  0  0  0  0  0  0  0  0  0  0
    7.8003  -20.8018    0.0000 C   0  0  0  0  0  0  0  0  0  0  0  0
    7.0858  -20.3893    0.0000 C   0  0  0  0  0  0  0  0  0  0  0  0
    6.3714  -20.8018    0.0000 C   0  0  0  0  0  0  0  0  0  0  0  0
    7.0858  -19.5643    0.0000 O   0  0  0  0  0  0  0  0  0  0  0  0
    7.8003  -19.1518    0.0000 C   0  0  0  0  0  0  0  0  0  0  0  0
    8.5148  -20.3893    0.0000 O   0  0  0  0  0  0  0  0  0  0  0  0
    9.2293  -20.8018    0.0000 C   0  0  0  0  0  0  0  0  0  0  0  0
  1  2  2  0
  1  6  1  0
  2  3  1  0
  3  4  2  0
  4  5  1  0
  5  6  2  0
  6  7  1  0
  7  8  1  0
  8  9  1  0
 13  8  1  0
  9 10  1  0
 10 11  1  0
 11 12  1  0
 12 13  1  0
 11 14  1  0
 14 15  1  0
 15 16  1  0
 16 17  1  0
 17 18  2  0
 17 22  1  0
 18 19  1  0
 19 20  2  0
 20 21  1  0
 21 22  2  0
 21 23  1  0
 23 24  1  0
 20 25  1  0
 25 26  1  0
M  END
>  <Curated_InChIs>  (217) 
InChI=1S/C23H31NO2/c1-25-22-11-10-20(18-23(22)26-2)9-6-14-24-15-12-21(13-16-24)17-19-7-4-3-5-8-19/h3-5,7-8,10-11,18,21H,6,9,12-17H2,1-2H3

>  <threshold>  (217) 
5

>  <pchembl>  (217) 
5.64

>  <Classification>  (217) 
1

>  <source>  (217) 
chembl_28

>  <SMILES>  (217) 
COc1ccc(CCCN2CCC(Cc3ccccc3)CC2)cc1OC

>  <InChIKey>  (217) 
UWXCCZITYWUQSN-UHFFFAOYSA-N

$$$$

     RDKit          2D

 73 80  0  0  0  0  0  0  0  0999 V2000
   36.1970   -3.6339    0.0000 N   0  0  0  0  0  0  0  0  0  0  0  0
   36.1909   -2.8089    0.0000 C   0  0  0  0  0  0  0  0  0  0  0  0
   33.3467   -5.2924    0.0000 C   0  0  0  0  0  0  0  0  0  0  0  0
   35.4754   -2.4017    0.0000 C   0  0  0  0  0  0  0  0  0  0  0  0
   34.0561   -4.8747    0.0000 N   0  0  0  0  0  0  0  0  0  0  0  0
   32.6313   -4.8852    0.0000 C   0  0  0  0  0  0  0  0  0  0  0  0
   36.9128   -2.3911    0.0000 C   0  0  0  0  0  0  0  0  0  0  0  0
   35.4875   -4.0516    0.0000 C   0  0  0  0  0  0  0  0  0  0  0  0
   31.9217   -5.2904    0.0000 C   0  0  0  0  0  0  0  0  0  0  0  0
   36.9126   -4.0535    0.0000 C   0  0  0  0  0  0  0  0  0  0  0  0
   34.7717   -5.2819    0.0000 C   0  0  0  0  0  0  0  0  0  0  0  0
   34.7658   -2.8070    0.0000 N   0  0  0  0  0  0  0  0  0  0  0  0
   35.4812   -4.8766    0.0000 C   0  0  0  0  0  0  0  0  0  0  0  0
   37.6283   -2.7983    0.0000 C   0  0  0  0  0  0  0  0  0  0  0  0
   37.6345   -3.6357    0.0000 C   0  0  0  0  0  0  0  0  0  0  0  0
   33.3404   -6.1174    0.0000 O   0  0  0  0  0  0  0  0  0  0  0  0
   35.4818   -1.5767    0.0000 O   0  0  0  0  0  0  0  0  0  0  0  0
   31.2062   -4.8833    0.0000 C   0  0  0  0  0  0  0  0  0  0  0  0
   34.7777   -6.1068    0.0000 C   0  0  0  0  0  0  0  0  0  0  0  0
   34.0504   -2.3997    0.0000 C   0  0  0  0  0  0  0  0  0  0  0  0
   35.4934   -6.5266    0.0000 S   0  0  0  0  0  0  0  0  0  0  0  0
   36.1966   -5.2839    0.0000 O   0  0  0  0  0  0  0  0  0  0  0  0
   35.4869   -7.3516    0.0000 C   0  0  0  0  0  0  0  0  0  0  0  0
   30.4968   -5.3010    0.0000 O   0  0  0  0  0  0  0  0  0  0  0  0
   32.6251   -4.0602    0.0000 C   0  0  0  0  0  0  0  0  0  0  0  0
   31.9278   -6.1154    0.0000 C   0  0  0  0  0  0  0  0  0  0  0  0
   31.9220   -3.6404    0.0000 C   0  0  0  0  0  0  0  0  0  0  0  0
   31.2001   -4.0583    0.0000 C   0  0  0  0  0  0  0  0  0  0  0  0
   38.3377   -2.3806    0.0000 C   0  0  0  0  0  0  0  0  0  0  0  0
   38.3500   -4.0429    0.0000 C   0  0  0  0  0  0  0  0  0  0  0  0
   34.7774   -7.7569    0.0000 C   0  0  0  0  0  0  0  0  0  0  0  0
   36.2025   -7.7588    0.0000 C   0  0  0  0  0  0  0  0  0  0  0  0
   39.0594   -3.6252    0.0000 C   0  0  0  0  0  0  0  0  0  0  0  0
   39.0532   -2.7878    0.0000 C   0  0  0  0  0  0  0  0  0  0  0  0
   36.2085   -8.5838    0.0000 C   0  0  0  0  0  0  0  0  0  0  0  0
   34.7711   -8.5819    0.0000 C   0  0  0  0  0  0  0  0  0  0  0  0
   35.4866   -9.0016    0.0000 C   0  0  0  0  0  0  0  0  0  0  0  0
   18.4906   -4.6912    0.0000 C   0  0  0  0  0  0  0  0  0  0  0  0
   19.1101   -4.1411    0.0000 N   0  0  0  0  0  0  0  0  0  0  0  0
   17.7863   -4.2769    0.0000 C   0  0  0  0  0  0  0  0  0  0  0  0
   17.0615   -4.6747    0.0000 C   0  0  0  0  0  0  0  0  0  0  0  0
   18.4947   -5.5163    0.0000 N   0  0  0  0  0  0  0  0  0  0  0  0
   17.9527   -3.4675    0.0000 N   0  0  0  0  0  0  0  0  0  0  0  0
   17.0572   -5.4998    0.0000 N   0  0  0  0  0  0  0  0  0  0  0  0
   18.7752   -3.3925    0.0000 C   0  0  0  0  0  0  0  0  0  0  0  0
   17.7655   -5.9225    0.0000 C   0  0  0  0  0  0  0  0  0  0  0  0
   19.9389   -4.1662    0.0000 C   0  0  0  0  0  0  0  0  0  0  0  0
   16.3489   -4.2602    0.0000 N   0  0  0  0  0  0  0  0  0  0  0  0
   20.4482   -3.5056    0.0000 C   0  0  0  0  0  0  0  0  0  0  0  0
   15.6403   -4.6792    0.0000 C   0  0  0  0  0  0  0  0  0  0  0  0
   21.2219   -3.7838    0.0000 C   0  0  0  0  0  0  0  0  0  0  0  0
   15.2340   -5.3961    0.0000 C   0  0  0  0  0  0  0  0  0  0  0  0
   14.8152   -4.6750    0.0000 C   0  0  0  0  0  0  0  0  0  0  0  0
   20.4087   -4.8425    0.0000 C   0  0  0  0  0  0  0  0  0  0  0  0
   17.7694   -6.7603    0.0000 N   0  0  0  0  0  0  0  0  0  0  0  0
   21.2010   -4.6086    0.0000 C   0  0  0  0  0  0  0  0  0  0  0  0
   22.6507   -4.6380    0.0000 O   0  0  0  0  0  0  0  0  0  0  0  0
   21.9091   -5.0355    0.0000 C   0  0  0  0  0  0  0  0  0  0  0  0
   23.3518   -5.0727    0.0000 C   0  0  0  0  0  0  0  0  0  0  0  0
   24.0789   -4.6829    0.0000 C   0  0  0  0  0  0  0  0  0  0  0  0
   23.3259   -5.8972    0.0000 O   0  0  0  0  0  0  0  0  0  0  0  0
   24.7800   -5.1177    0.0000 C   0  0  0  0  0  0  0  0  0  0  0  0
   25.5071   -4.7278    0.0000 C   0  0  0  0  0  0  0  0  0  0  0  0
   26.2082   -5.1626    0.0000 S   0  0  0  0  0  0  0  0  0  0  0  0
   26.9352   -4.7728    0.0000 S   0  0  0  0  0  0  0  0  0  0  0  0
   27.6364   -5.2075    0.0000 C   0  0  0  0  0  0  0  0  0  0  0  0
   28.3634   -4.8178    0.0000 C   0  0  0  0  0  0  0  0  0  0  0  0
   29.0645   -5.2525    0.0000 C   0  0  0  0  0  0  0  0  0  0  0  0
   29.7917   -4.8627    0.0000 C   0  0  0  0  0  0  0  0  0  0  0  0
   29.8176   -4.0381    0.0000 O   0  0  0  0  0  0  0  0  0  0  0  0
   34.0452   -1.5748    0.0000 C   0  0  0  0  0  0  0  0  0  0  0  0
   33.3385   -2.8167    0.0000 C   0  0  0  0  0  0  0  0  0  0  0  0
   33.3323   -1.9833    0.0000 C   0  0  0  0  0  0  0  0  0  0  0  0
  2  1  1  0
  3  5  1  0
  2  4  1  6
  5 11  1  0
  6  3  1  0
  7  2  1  0
  8  1  1  0
  9  6  2  0
 10  1  1  0
 11 13  1  0
 12  4  1  0
 13  8  1  0
 14 15  1  0
 15 10  1  6
 16  3  2  0
 17  4  2  0
 18  9  1  0
 11 19  1  6
 20 12  1  0
 21 19  1  0
 13 22  1  1
 23 21  1  0
 24 18  1  0
 25  6  1  0
 26  9  1  0
 27 25  2  0
 28 27  1  0
 14 29  1  6
 30 15  1  0
 31 23  2  0
 32 23  1  0
 33 30  1  0
 34 33  1  0
 35 32  2  0
 36 31  1  0
 37 35  1  0
 14  7  1  0
 29 34  1  0
 37 36  2  0
 28 18  2  0
 39 38  1  0
 40 38  1  0
 41 40  2  0
 42 38  2  0
 43 40  1  0
 44 46  2  0
 45 39  1  0
 46 42  1  0
 47 39  1  1
 48 41  1  0
 49 47  1  0
 50 48  1  0
 51 49  2  0
 52 50  1  0
 53 50  1  0
 54 47  1  0
 55 46  1  0
 56 54  1  0
 57 58  1  0
 56 58  1  1
 45 43  2  0
 41 44  1  0
 56 51  1  0
 52 53  1  0
 57 59  1  0
 59 60  1  0
 59 61  2  0
 60 62  1  0
 62 63  1  0
 63 64  1  0
 64 65  1  0
 65 66  1  0
 66 67  1  0
 67 68  1  0
 68 69  1  0
 69 70  2  0
 69 24  1  0
 20 71  1  0
 20 72  1  0
 20 73  1  0
M  END
>  <Curated_InChIs>  (218) 
InChI=1S/C54H73N9O7S3/c1-34-41(51(67)58-42(32-71-40-15-6-5-7-16-40)44(64)30-62-29-37-14-9-8-13-36(37)28-43(62)52(68)61-54(2,3)4)17-10-18-45(34)70-47(66)20-12-26-73-72-25-11-19-46(65)69-31-35-21-24-39(27-35)63-33-56-48-49(57-38-22-23-38)59-53(55)60-50(48)63/h5-7,10,15-18,21,24,33,35-39,42-44,64H,8-9,11-14,19-20,22-23,25-32H2,1-4H3,(H,58,67)(H,61,68)(H3,55,57,59,60)

>  <threshold>  (218) 
5

>  <pchembl>  (218) 
6.19, 6.23, 6.39, 6.11

>  <Classification>  (218) 
1

>  <source>  (218) 
chembl_28

>  <SMILES>  (218) 
Cc1c(OC(=O)CCCSSCCCC(=O)OC[C@@H]2C=C[C@H](n3cnc4c(NC5CC5)nc(N)nc43)C2)cccc1C(=O)N[C@@H](CSc1ccccc1)[C@H](O)CN1C[C@H]2CCCC[C@H]2C[C@H]1C(=O)NC(C)(C)C

>  <InChIKey>  (218) 
UYDWUMXOVDVOOD-SPFYOKMPSA-N

$$$$

     RDKit          2D

 46 50  0  0  0  0  0  0  0  0999 V2000
   -2.5800    0.7500    0.0000 C   0  0  0  0  0  0  0  0  0  0  0  0
   -2.5800    2.2400    0.0000 C   0  0  0  0  0  0  0  0  0  0  0  0
   -1.2900    3.0200    0.0000 C   0  0  0  0  0  0  0  0  0  0  0  0
   -1.2900    0.0100    0.0000 C   0  0  0  0  0  0  0  0  0  0  0  0
    0.0000    0.7400    0.0000 C   0  0  0  0  0  0  0  0  0  0  0  0
    0.0000    2.2900    0.0000 C   0  0  0  0  0  0  0  0  0  0  0  0
    1.3200    1.5200    0.0000 C   0  0  0  0  0  0  0  0  0  0  0  0
    3.2600    1.5200    0.0000 C   0  0  0  0  0  0  0  0  0  0  0  0
    2.5900    0.1900    0.0000 C   0  0  0  0  0  0  0  0  0  0  0  0
    1.1200   -0.1300    0.0000 C   0  0  0  0  0  0  0  0  0  0  0  0
   -2.2596   -1.1360    0.0000 O   0  0  0  0  0  0  0  0  0  0  0  0
   -3.7367   -0.8703    0.0000 C   0  0  0  0  0  0  0  0  0  0  0  0
   -4.1429    0.2588    0.0000 C   0  0  0  0  0  0  0  0  0  0  0  0
   -4.3826   -1.6338    0.0000 O   0  0  0  0  0  0  0  0  0  0  0  0
    0.7561   -1.5887    0.0000 O   0  0  0  0  0  0  0  0  0  0  0  0
   -0.4580   -2.4710    0.0000 C   0  0  0  0  0  0  0  0  0  0  0  0
   -0.3019   -3.9637    0.0000 C   0  0  0  0  0  0  0  0  0  0  0  0
   -1.3715   -2.0640    0.0000 O   0  0  0  0  0  0  0  0  0  0  0  0
   -1.5141   -4.8473    0.0000 C   0  0  0  0  0  0  0  0  0  0  0  0
   -1.3550   -6.3388    0.0000 C   0  0  0  0  0  0  0  0  0  0  0  0
    0.0162   -6.9468    0.0000 C   0  0  0  0  0  0  0  0  0  0  0  0
    1.2284   -6.0633    0.0000 C   0  0  0  0  0  0  0  0  0  0  0  0
    1.0693   -4.5718    0.0000 C   0  0  0  0  0  0  0  0  0  0  0  0
   -0.0872   -0.4568    0.0000 C   0  0  0  0  0  0  0  0  0  0  0  0
    3.8656   -0.6047    0.0000 O   0  0  0  0  0  0  0  0  0  0  0  0
   -0.2456    3.6110    0.0000 C   0  0  0  0  0  0  0  0  0  0  0  0
    1.1200    3.2400    0.0000 O   0  0  0  0  0  0  0  0  0  0  0  0
    2.5900    2.9100    0.0000 C   0  0  0  0  0  0  0  0  0  0  0  0
    1.2773    0.0143    0.0000 O   0  0  0  0  0  0  0  0  0  0  0  0
    3.7711    2.6979    0.0000 C   0  0  0  0  0  0  0  0  0  0  0  0
    2.1162    4.0125    0.0000 C   0  0  0  0  0  0  0  0  0  0  0  0
    5.1902    0.1009    0.0000 C   0  0  0  0  0  0  0  0  0  0  0  0
    6.4641   -0.6926    0.0000 C   0  0  0  0  0  0  0  0  0  0  0  0
    5.2308    1.3002    0.0000 O   0  0  0  0  0  0  0  0  0  0  0  0
    7.7887    0.0130    0.0000 C   0  0  0  0  0  0  0  0  0  0  0  0
    9.0626   -0.7805    0.0000 C   0  0  0  0  0  0  0  0  0  0  0  0
   10.3875   -0.0772    0.0000 C   0  0  0  0  0  0  0  0  0  0  0  0
   11.6591   -0.8728    0.0000 C   0  0  0  0  0  0  0  0  0  0  0  0
   11.6058   -2.3719    0.0000 C   0  0  0  0  0  0  0  0  0  0  0  0
   10.2810   -3.0753    0.0000 C   0  0  0  0  0  0  0  0  0  0  0  0
    9.0094   -2.2796    0.0000 C   0  0  0  0  0  0  0  0  0  0  0  0
    2.2105   -1.1611    0.0000 C   0  0  0  0  0  0  0  0  0  0  0  0
    1.6600   -2.5573    0.0000 C   0  0  0  0  0  0  0  0  0  0  0  0
    3.3974   -0.9844    0.0000 O   0  0  0  0  0  0  0  0  0  0  0  0
   -2.3510    3.5807    0.0000 O   0  0  0  0  0  0  0  0  0  0  0  0
    2.4062   -3.4971    0.0000 C   0  0  0  0  0  0  0  0  0  0  0  0
  1  2  1  0
  1  4  1  0
  2  3  1  0
  3  6  1  0
  5  4  1  0
  5  6  1  0
  5 10  1  0
  6  7  1  0
  7  8  1  0
  8  9  1  0
  9 10  1  0
  4 11  1  1
 11 12  1  0
 12 13  1  0
 12 14  2  0
 10 15  1  6
 15 16  1  0
 16 17  1  0
 16 18  2  0
 17 19  2  0
 19 20  1  0
 20 21  2  0
 21 22  1  0
 22 23  2  0
 23 17  1  0
  5 24  1  1
  9 25  1  6
  3 26  1  1
  6 27  1  6
  8 28  1  6
 27 28  1  0
  7 29  1  1
 28 30  1  0
 28 31  1  0
 25 32  1  0
 32 33  1  0
 32 34  2  0
 33 35  2  0
 35 36  1  0
 36 37  2  0
 37 38  1  0
 38 39  2  0
 39 40  1  0
 40 41  2  0
 41 36  1  0
 29 42  1  0
 42 43  1  0
 42 44  2  0
  3 45  1  0
 43 46  1  0
M  END
>  <Curated_InChIs>  (219) 
InChI=1S/C36H42O10/c1-7-26(38)44-30-28-29(43-27(39)19-18-23-14-10-8-11-15-23)31(45-32(40)24-16-12-9-13-17-24)35(6)25(42-22(2)37)20-21-34(5,41)36(30,35)46-33(28,3)4/h8-19,25,28-31,41H,7,20-21H2,1-6H3

>  <threshold>  (219) 
5

>  <pchembl>  (219) 
6.27

>  <Classification>  (219) 
1

>  <source>  (219) 
chembl_28

>  <SMILES>  (219) 
CCC(=O)O[C@@H]1[C@H]2[C@H](OC(=O)/C=C/c3ccccc3)[C@H](OC(=O)c3ccccc3)[C@]3(C)[C@@H](OC(C)=O)CC[C@](C)(O)[C@@]13OC2(C)C

>  <InChIKey>  (219) 
UZAJTDNSSDOGDB-WDXZRLHGSA-N

$$$$

     RDKit          2D

 49 53  0  0  0  0  0  0  0  0999 V2000
   11.8774  -14.7995    0.0000 C   0  0  0  0  0  0  0  0  0  0  0  0
   11.1650  -15.2081    0.0000 C   0  0  0  0  0  0  0  0  0  0  0  0
    9.7528  -15.2059    0.0000 C   0  0  0  0  0  0  0  0  0  0  0  0
   11.8858  -13.9823    0.0000 C   0  0  0  0  0  0  0  0  0  0  0  0
   12.6632  -13.7350    0.0000 C   0  0  0  0  0  0  0  0  0  0  0  0
   10.4589  -14.7973    0.0000 C   0  0  0  0  0  0  0  0  0  0  0  0
    9.7528  -16.0231    0.0000 C   0  0  0  0  0  0  0  0  0  0  0  0
    9.0466  -16.4317    0.0000 C   0  0  0  0  0  0  0  0  0  0  0  0
   12.6465  -15.0614    0.0000 C   0  0  0  0  0  0  0  0  0  0  0  0
   13.1367  -14.4055    0.0000 C   0  0  0  0  0  0  0  0  0  0  0  0
    7.6385  -16.4338    0.0000 N   0  0  0  0  0  0  0  0  0  0  0  0
    8.3446  -16.0231    0.0000 C   0  0  0  0  0  0  0  0  0  0  0  0
   11.1650  -16.0231    0.0000 C   0  0  0  0  0  0  0  0  0  0  0  0
   11.1734  -13.5715    0.0000 C   0  0  0  0  0  0  0  0  0  0  0  0
    9.0466  -14.7973    0.0000 C   0  0  0  0  0  0  0  0  0  0  0  0
   10.4589  -13.9718    0.0000 C   0  0  0  0  0  0  0  0  0  0  0  0
   10.4589  -16.4317    0.0000 C   0  0  0  0  0  0  0  0  0  0  0  0
    8.3446  -15.2059    0.0000 C   0  0  0  0  0  0  0  0  0  0  0  0
   11.8712  -15.6167    0.0000 C   0  0  0  0  0  0  0  0  0  0  0  0
   11.1545  -14.3887    0.0000 C   0  0  0  0  0  0  0  0  0  0  0  0
    9.7423  -14.3887    0.0000 C   0  0  0  0  0  0  0  0  0  0  0  0
    9.0466  -17.3265    0.0000 C   0  0  0  0  0  0  0  0  0  0  0  0
    8.3656  -16.8822    0.0000 C   0  0  0  0  0  0  0  0  0  0  0  0
   11.1789  -12.7565    0.0000 O   0  0  0  0  0  0  0  0  0  0  0  0
   12.9196  -12.9639    0.0000 C   0  0  0  0  0  0  0  0  0  0  0  0
   13.6929  -12.7195    0.0000 C   0  0  0  0  0  0  0  0  0  0  0  0
   13.7016  -11.9087    0.0000 C   0  0  0  0  0  0  0  0  0  0  0  0
   12.9345  -11.6522    0.0000 C   0  0  0  0  0  0  0  0  0  0  0  0
   12.4505  -12.3017    0.0000 O   0  0  0  0  0  0  0  0  0  0  0  0
   12.6941  -10.8732    0.0000 C   0  0  0  0  0  0  0  0  0  0  0  0
   13.2409  -10.2753    0.0000 O   0  0  0  0  0  0  0  0  0  0  0  0
   11.8943  -10.6983    0.0000 C   0  0  0  0  0  0  0  0  0  0  0  0
   12.4746  -10.0828    0.0000 C   0  0  0  0  0  0  0  0  0  0  0  0
   13.4972  -13.5380    0.0000 C   0  0  0  0  0  0  0  0  0  0  0  0
    6.9295  -16.0275    0.0000 C   0  0  0  0  0  0  0  0  0  0  0  0
    6.2231  -16.4384    0.0000 C   0  0  0  0  0  0  0  0  0  0  0  0
    6.9269  -15.2103    0.0000 O   0  0  0  0  0  0  0  0  0  0  0  0
    6.2257  -17.2556    0.0000 C   0  0  0  0  0  0  0  0  0  0  0  0
    5.5193  -17.6665    0.0000 C   0  0  0  0  0  0  0  0  0  0  0  0
    5.5220  -18.4836    0.0000 C   0  0  0  0  0  0  0  0  0  0  0  0
    4.8156  -18.8945    0.0000 C   0  0  0  0  0  0  0  0  0  0  0  0
    4.1066  -18.4882    0.0000 N   0  0  0  0  0  0  0  0  0  0  0  0
    3.4002  -18.8991    0.0000 C   0  0  0  0  0  0  0  0  0  0  0  0
    2.6911  -18.4928    0.0000 O   0  0  0  0  0  0  0  0  0  0  0  0
    3.4028  -19.7163    0.0000 O   0  0  0  0  0  0  0  0  0  0  0  0
    2.6885  -17.6756    0.0000 C   0  0  0  0  0  0  0  0  0  0  0  0
    1.9795  -17.2693    0.0000 C   0  0  0  0  0  0  0  0  0  0  0  0
    3.3949  -17.2647    0.0000 C   0  0  0  0  0  0  0  0  0  0  0  0
    2.6827  -16.8556    0.0000 C   0  0  0  0  0  0  0  0  0  0  0  0
  2  1  1  0
  3  6  1  0
  4  1  1  0
  5  4  1  0
  6  2  1  0
  7 17  1  1
  8  7  1  0
  9  1  1  0
 10  9  1  0
 12 11  1  1
 12  8  1  0
 13  2  1  0
  4 14  1  6
 15  3  1  0
 16 14  1  0
 17 13  1  0
 18 15  1  0
  1 19  1  6
  2 20  1  1
  3 21  1  1
 22  8  1  0
 23  8  1  0
  5 10  1  1
  6 16  1  1
  7  3  1  0
 12 18  1  0
 14 24  1  1
  5 25  1  0
 25 26  1  0
 26 27  1  0
 27 28  1  0
 28 29  1  0
 29 25  1  0
 28 30  1  1
 30 31  1  0
 30 32  1  0
 30 33  1  0
 25 34  1  6
 11 35  1  0
 35 36  1  0
 35 37  2  0
 36 38  1  0
 38 39  1  0
 39 40  1  0
 40 41  1  0
 41 42  1  0
 42 43  1  0
 43 44  1  0
 43 45  2  0
 44 46  1  0
 46 47  1  0
 46 48  1  0
 46 49  1  0
M  END
>  <Curated_InChIs>  (220) 
InChI=1S/C41H72N2O6/c1-35(2,3)49-34(46)42-24-14-12-13-15-32(45)43-30-18-20-38(8)28(36(30,4)5)17-22-39(9)29(38)25-27(44)33-26(16-21-40(33,39)10)41(11)23-19-31(48-41)37(6,7)47/h26-31,33,44,47H,12-25H2,1-11H3,(H,42,46)(H,43,45)

>  <threshold>  (220) 
5

>  <pchembl>  (220) 
7.32, 7.55

>  <Classification>  (220) 
1

>  <source>  (220) 
chembl_28

>  <SMILES>  (220) 
CC(C)(C)OC(=O)NCCCCCC(=O)N[C@H]1CC[C@@]2(C)[C@@H](CC[C@]3(C)[C@@H]2C[C@@H](O)[C@@H]2[C@@H]([C@]4(C)CC[C@H](C(C)(C)O)O4)CC[C@]23C)C1(C)C

>  <InChIKey>  (220) 
VDINNMXEKZJEKS-OVMOOWNWSA-N

$$$$

     RDKit          2D

 85 85  0  0  0  0  0  0  0  0999 V2000
    2.4033    2.6577    0.0000 N   0  0  0  0  0  0  0  0  0  0  0  0
    1.7788    2.1186    0.0000 C   0  0  0  0  0  0  0  0  0  0  0  0
    0.4489    1.3925    0.0000 N   0  0  0  0  0  0  0  0  0  0  0  0
    3.1090    2.2303    0.0000 C   0  0  0  0  0  0  0  0  0  0  0  0
    0.8464    0.6696    0.0000 C   0  0  0  0  0  0  0  0  0  0  0  0
    0.8165   -0.7590    0.0000 N   0  0  0  0  0  0  0  0  0  0  0  0
    0.3891   -1.4647    0.0000 C   0  0  0  0  0  0  0  0  0  0  0  0
    0.3593   -2.8934    0.0000 N   0  0  0  0  0  0  0  0  0  0  0  0
    2.9206    1.4271    0.0000 C   0  0  0  0  0  0  0  0  0  0  0  0
    1.9193   -7.2137    0.0000 N   0  0  0  0  0  0  0  0  0  0  0  0
    2.7441   -7.2310    0.0000 C   0  0  0  0  0  0  0  0  0  0  0  0
    0.4190   -0.0361    0.0000 C   0  0  0  0  0  0  0  0  0  0  0  0
    0.7866   -2.1877    0.0000 C   0  0  0  0  0  0  0  0  0  0  0  0
    2.7740   -5.8024    0.0000 N   0  0  0  0  0  0  0  0  0  0  0  0
    3.2312   -3.6680    0.0000 N   0  0  0  0  0  0  0  0  0  0  0  0
    0.7567   -3.6163    0.0000 C   0  0  0  0  0  0  0  0  0  0  0  0
    3.2013   -5.0967    0.0000 C   0  0  0  0  0  0  0  0  0  0  0  0
    0.8762    2.0982    0.0000 C   0  0  0  0  0  0  0  0  0  0  0  0
    0.6671   -7.9022    0.0000 C   0  0  0  0  0  0  0  0  0  0  0  0
    2.8337   -2.9451    0.0000 C   0  0  0  0  0  0  0  0  0  0  0  0
    3.3208    0.6179    0.0000 N   0  0  0  0  0  0  0  0  0  0  0  0
    2.8636   -1.5165    0.0000 N   0  0  0  0  0  0  0  0  0  0  0  0
    1.4919   -7.9194    0.0000 C   0  0  0  0  0  0  0  0  0  0  0  0
    3.1715   -6.5253    0.0000 C   0  0  0  0  0  0  0  0  0  0  0  0
    2.8039   -4.3737    0.0000 C   0  0  0  0  0  0  0  0  0  0  0  0
    3.2910   -0.8108    0.0000 C   0  0  0  0  0  0  0  0  0  0  0  0
    0.2696   -7.1792    0.0000 N   0  0  0  0  0  0  0  0  0  0  0  0
    0.7269   -5.0449    0.0000 N   0  0  0  0  0  0  0  0  0  0  0  0
    0.2995   -5.7506    0.0000 C   0  0  0  0  0  0  0  0  0  0  0  0
    0.3294   -4.3220    0.0000 C   0  0  0  0  0  0  0  0  0  0  0  0
    2.8935   -0.0878    0.0000 C   0  0  0  0  0  0  0  0  0  0  0  0
    3.2611   -2.2394    0.0000 C   0  0  0  0  0  0  0  0  0  0  0  0
    3.8695    2.5500    0.0000 C   0  0  0  0  0  0  0  0  0  0  0  0
    0.6970   -6.4736    0.0000 C   0  0  0  0  0  0  0  0  0  0  0  0
    2.0751    1.3486    0.0000 O   0  0  0  0  0  0  0  0  0  0  0  0
    1.6712    0.6523    0.0000 O   0  0  0  0  0  0  0  0  0  0  0  0
   -0.4357   -1.4475    0.0000 O   0  0  0  0  0  0  0  0  0  0  0  0
    3.1416   -7.9539    0.0000 O   0  0  0  0  0  0  0  0  0  0  0  0
    2.1702    1.0842    0.0000 O   0  0  0  0  0  0  0  0  0  0  0  0
    1.5816   -3.6335    0.0000 O   0  0  0  0  0  0  0  0  0  0  0  0
   -0.4058   -0.0188    0.0000 C   0  0  0  0  0  0  0  0  0  0  0  0
   -0.0382   -2.1704    0.0000 C   0  0  0  0  0  0  0  0  0  0  0  0
    4.0261   -5.1139    0.0000 O   0  0  0  0  0  0  0  0  0  0  0  0
    0.2398   -8.6079    0.0000 O   0  0  0  0  0  0  0  0  0  0  0  0
    2.0089   -2.9279    0.0000 O   0  0  0  0  0  0  0  0  0  0  0  0
    4.1158   -0.8280    0.0000 O   0  0  0  0  0  0  0  0  0  0  0  0
    1.8894   -8.6424    0.0000 C   0  0  0  0  0  0  0  0  0  0  0  0
    3.6287   -4.3910    0.0000 C   0  0  0  0  0  0  0  0  0  0  0  0
   -0.5253   -5.7334    0.0000 O   0  0  0  0  0  0  0  0  0  0  0  0
    0.4632    2.8124    0.0000 C   0  0  0  0  0  0  0  0  0  0  0  0
    3.9963   -6.5425    0.0000 C   0  0  0  0  0  0  0  0  0  0  0  0
    2.3342    3.4798    0.0000 C   0  0  0  0  0  0  0  0  0  0  0  0
    5.9444    1.8722    0.0000 C   0  0  0  0  0  0  0  0  0  0  0  0
   -0.3759    1.4098    0.0000 C   0  0  0  0  0  0  0  0  0  0  0  0
    5.8410    1.0537    0.0000 C   0  0  0  0  0  0  0  0  0  0  0  0
    1.6413   -0.7763    0.0000 C   0  0  0  0  0  0  0  0  0  0  0  0
   -0.3182   -3.3642    0.0000 C   0  0  0  0  0  0  0  0  0  0  0  0
    1.5218   -6.4908    0.0000 C   0  0  0  0  0  0  0  0  0  0  0  0
    4.5267    2.0513    0.0000 C   0  0  0  0  0  0  0  0  0  0  0  0
    3.9086   -3.1972    0.0000 C   0  0  0  0  0  0  0  0  0  0  0  0
    3.9729    3.3685    0.0000 O   0  0  0  0  0  0  0  0  0  0  0  0
    2.0388   -1.4992    0.0000 C   0  0  0  0  0  0  0  0  0  0  0  0
   -0.4954   -4.3047    0.0000 C   0  0  0  0  0  0  0  0  0  0  0  0
    2.0687   -0.0706    0.0000 C   0  0  0  0  0  0  0  0  0  0  0  0
    5.2872    2.3710    0.0000 C   0  0  0  0  0  0  0  0  0  0  0  0
   -0.4655   -2.8761    0.0000 C   0  0  0  0  0  0  0  0  0  0  0  0
   -0.8033    0.7041    0.0000 C   0  0  0  0  0  0  0  0  0  0  0  0
    1.4621   -9.3481    0.0000 C   0  0  0  0  0  0  0  0  0  0  0  0
    4.0560   -3.6853    0.0000 C   0  0  0  0  0  0  0  0  0  0  0  0
    1.3744   -6.0027    0.0000 C   0  0  0  0  0  0  0  0  0  0  0  0
    6.4981    0.5549    0.0000 C   0  0  0  0  0  0  0  0  0  0  0  0
    4.4236   -5.8369    0.0000 C   0  0  0  0  0  0  0  0  0  0  0  0
    0.8751    3.5272    0.0000 C   0  0  0  0  0  0  0  0  0  0  0  0
   -0.3618    2.8117    0.0000 C   0  0  0  0  0  0  0  0  0  0  0  0
    4.3937   -7.2655    0.0000 C   0  0  0  0  0  0  0  0  0  0  0  0
    4.4233    1.2328    0.0000 C   0  0  0  0  0  0  0  0  0  0  0  0
    1.8595  -10.0710    0.0000 C   0  0  0  0  0  0  0  0  0  0  0  0
    0.6372   -9.3308    0.0000 C   0  0  0  0  0  0  0  0  0  0  0  0
    4.1594   -2.8668    0.0000 C   0  0  0  0  0  0  0  0  0  0  0  0
   -0.5689   -3.6946    0.0000 C   0  0  0  0  0  0  0  0  0  0  0  0
   -1.2904   -2.8589    0.0000 C   0  0  0  0  0  0  0  0  0  0  0  0
    4.8808   -3.7025    0.0000 C   0  0  0  0  0  0  0  0  0  0  0  0
   -1.6281    0.7213    0.0000 C   0  0  0  0  0  0  0  0  0  0  0  0
   -0.8723    1.5262    0.0000 C   0  0  0  0  0  0  0  0  0  0  0  0
    7.2587    0.8746    0.0000 C   0  0  0  0  0  0  0  0  0  0  0  0
  2  1  1  0
  3 18  1  0
  4  1  1  0
  5  3  1  0
  6 12  1  0
  7  6  1  0
  8 13  1  0
  4  9  1  1
 10 11  1  0
 11 24  1  0
 12  5  1  0
 13  7  1  0
 14 17  1  0
 15 20  1  0
 16  8  1  0
 17 25  1  0
 18  2  1  0
 19 27  1  0
 20 32  1  0
 21  9  1  0
 22 26  1  0
 23 10  1  0
 24 14  1  0
 25 15  1  0
 26 31  1  0
 27 34  1  0
 28 30  1  0
 29 28  1  0
 30 16  1  0
 31 21  1  0
 32 22  1  0
 33  4  1  0
 34 29  1  0
 35  2  2  0
 36  5  2  0
 37  7  2  0
 38 11  2  0
 39  9  2  0
 40 16  2  0
 12 41  1  1
 13 42  1  6
 43 17  2  0
 44 19  2  0
 45 20  2  0
 46 26  2  0
 23 47  1  6
 25 48  1  1
 49 29  2  0
 18 50  1  1
 24 51  1  6
 52  1  1  0
 53 65  1  0
 54  3  1  0
 55 53  2  0
 56  6  1  0
 57  8  1  0
 58 10  1  0
 59 33  1  0
 60 15  1  0
 33 61  1  6
 62 22  1  0
 30 63  1  6
 31 64  1  6
 65 59  1  0
 66 42  1  0
 67 41  1  0
 68 47  1  0
 69 48  1  0
 34 70  1  6
 71 55  1  0
 72 51  1  0
 73 50  1  0
 74 50  1  0
 75 51  1  0
 59 76  1  1
 77 68  1  0
 78 68  1  0
 79 69  1  0
 80 66  1  0
 81 66  1  0
 82 69  1  0
 83 67  1  0
 84 67  1  0
 85 71  1  0
 19 23  1  0
M  END
>  <Curated_InChIs>  (221) 
InChI=1S/C62H111N11O12/c1-25-26-27-28-40(14)52(75)51-56(79)65-42(16)57(80)67(18)33-48(74)68(19)44(29-34(2)3)55(78)66-49(38(10)11)61(84)69(20)45(30-35(4)5)54(77)63-41(15)53(76)64-43(17)58(81)70(21)46(31-36(6)7)59(82)71(22)47(32-37(8)9)60(83)72(23)50(39(12)13)62(85)73(51)24/h26-27,34-47,49-52,75H,25,28-33H2,1-24H3,(H,63,77)(H,64,76)(H,65,79)(H,66,78)

>  <threshold>  (221) 
5

>  <pchembl>  (221) 
5.33

>  <Classification>  (221) 
1

>  <source>  (221) 
chembl_28

>  <SMILES>  (221) 
CC/C=C/C[C@@H](C)[C@@H](O)[C@H]1C(=O)N[C@@H](C)C(=O)N(C)CC(=O)N(C)[C@H](CC(C)C)C(=O)N[C@H](C(C)C)C(=O)N(C)[C@H](CC(C)C)C(=O)N[C@@H](C)C(=O)N[C@H](C)C(=O)N(C)[C@@H](CC(C)C)C(=O)N(C)[C@@H](CC(C)C)C(=O)N(C)[C@@H](C(C)C)C(=O)N1C

>  <InChIKey>  (221) 
VEIFOKPPVMYRRZ-AEKHNAAVSA-N

$$$$

     RDKit          2D

 32 34  0  0  0  0  0  0  0  0999 V2000
   37.2097   -2.8354    0.0000 C   0  0  0  0  0  0  0  0  0  0  0  0
   37.2085   -3.6549    0.0000 C   0  0  0  0  0  0  0  0  0  0  0  0
   37.9166   -4.0639    0.0000 C   0  0  0  0  0  0  0  0  0  0  0  0
   38.6262   -3.6544    0.0000 C   0  0  0  0  0  0  0  0  0  0  0  0
   38.6234   -2.8318    0.0000 C   0  0  0  0  0  0  0  0  0  0  0  0
   37.9148   -2.4265    0.0000 C   0  0  0  0  0  0  0  0  0  0  0  0
   39.3296   -2.4205    0.0000 C   0  0  0  0  0  0  0  0  0  0  0  0
   40.0388   -2.8264    0.0000 C   0  0  0  0  0  0  0  0  0  0  0  0
   40.7450   -2.4152    0.0000 C   0  0  0  0  0  0  0  0  0  0  0  0
   41.4542   -2.8211    0.0000 C   0  0  0  0  0  0  0  0  0  0  0  0
   41.4542   -3.6372    0.0000 C   0  0  0  0  0  0  0  0  0  0  0  0
   42.1626   -4.0430    0.0000 C   0  0  0  0  0  0  0  0  0  0  0  0
   42.8698   -3.6317    0.0000 C   0  0  0  0  0  0  0  0  0  0  0  0
   42.8640   -2.8103    0.0000 C   0  0  0  0  0  0  0  0  0  0  0  0
   42.1551   -2.4081    0.0000 C   0  0  0  0  0  0  0  0  0  0  0  0
   39.3346   -4.0619    0.0000 O   0  0  0  0  0  0  0  0  0  0  0  0
   36.5005   -4.0629    0.0000 O   0  0  0  0  0  0  0  0  0  0  0  0
   36.5019   -2.4269    0.0000 C   0  0  0  0  0  0  0  0  0  0  0  0
   37.9123   -1.6093    0.0000 O   0  0  0  0  0  0  0  0  0  0  0  0
   39.3359   -4.8791    0.0000 C   0  0  0  0  0  0  0  0  0  0  0  0
   39.3265   -1.6033    0.0000 O   0  0  0  0  0  0  0  0  0  0  0  0
   36.4999   -4.8801    0.0000 C   0  0  0  0  0  0  0  0  0  0  0  0
   35.7943   -2.8357    0.0000 C   0  0  0  0  0  0  0  0  0  0  0  0
   35.0865   -2.4273    0.0000 C   0  0  0  0  0  0  0  0  0  0  0  0
   34.3788   -2.8360    0.0000 C   0  0  0  0  0  0  0  0  0  0  0  0
   35.0863   -1.6101    0.0000 C   0  0  0  0  0  0  0  0  0  0  0  0
   43.5691   -2.3989    0.0000 N   0  0  0  0  0  0  0  0  0  0  0  0
   44.2796   -2.8045    0.0000 C   0  0  0  0  0  0  0  0  0  0  0  0
   44.9823   -2.3943    0.0000 C   0  0  0  0  0  0  0  0  0  0  0  0
   44.9805   -1.5767    0.0000 N   0  0  0  0  0  0  0  0  0  0  0  0
   44.2700   -1.1711    0.0000 C   0  0  0  0  0  0  0  0  0  0  0  0
   43.5612   -1.5831    0.0000 C   0  0  0  0  0  0  0  0  0  0  0  0
  1  2  2  0
  2  3  1  0
  3  4  2  0
  4  5  1  0
  5  6  2  0
  6  1  1  0
  5  7  1  0
  7  8  1  0
  8  9  2  0
  9 10  1  0
 10 11  2  0
 11 12  1  0
 12 13  2  0
 13 14  1  0
 14 15  2  0
 15 10  1  0
  4 16  1  0
  2 17  1  0
  1 18  1  0
  6 19  1  0
 16 20  1  0
  7 21  2  0
 17 22  1  0
 18 23  1  0
 23 24  2  3
 24 25  1  0
 24 26  1  0
 27 28  1  0
 27 32  1  0
 28 29  1  0
 29 30  1  0
 30 31  1  0
 31 32  1  0
 14 27  1  0
M  END
>  <Curated_InChIs>  (222) 
InChI=1S/C26H32N2O4/c1-18(2)8-10-21-23(31-3)17-24(32-4)25(26(21)30)22(29)11-9-19-6-5-7-20(16-19)28-14-12-27-13-15-28/h5-9,11,16-17,27,30H,10,12-15H2,1-4H3

>  <threshold>  (222) 
5

>  <pchembl>  (222) 
5.99

>  <Classification>  (222) 
1

>  <source>  (222) 
chembl_28

>  <SMILES>  (222) 
COc1cc(OC)c(C(=O)/C=C/c2cccc(N3CCNCC3)c2)c(O)c1CC=C(C)C

>  <InChIKey>  (222) 
VGGWXFSSGAQHBY-PKNBQFBNSA-N

$$$$

     RDKit          2D

 50 53  0  0  0  0  0  0  0  0999 V2000
   36.0059  -11.5191    0.0000 C   0  0  0  0  0  0  0  0  0  0  0  0
   35.6015  -12.2290    0.0000 C   0  0  0  0  0  0  0  0  0  0  0  0
   36.4185  -12.2243    0.0000 C   0  0  0  0  0  0  0  0  0  0  0  0
   33.6280  -13.0495    0.0000 C   0  0  0  0  0  0  0  0  0  0  0  0
   34.2032  -11.6506    0.0000 C   0  0  0  0  0  0  0  0  0  0  0  0
   34.2033  -13.6246    0.0000 C   0  0  0  0  0  0  0  0  0  0  0  0
   35.0228  -13.6246    0.0000 C   0  0  0  0  0  0  0  0  0  0  0  0
   35.6021  -13.0495    0.0000 C   0  0  0  0  0  0  0  0  0  0  0  0
   35.0228  -11.6505    0.0000 C   0  0  0  0  0  0  0  0  0  0  0  0
   30.9625  -12.0598    0.0000 C   0  0  0  0  0  0  0  0  0  0  0  0
   31.4494  -11.4011    0.0000 C   0  0  0  0  0  0  0  0  0  0  0  0
   31.4426  -12.7306    0.0000 C   0  0  0  0  0  0  0  0  0  0  0  0
   31.0383  -13.4413    0.0000 O   0  0  0  0  0  0  0  0  0  0  0  0
   31.8114  -10.9464    0.0000 O   0  0  0  0  0  0  0  0  0  0  0  0
   32.2289  -12.4758    0.0000 C   0  0  0  0  0  0  0  0  0  0  0  0
   32.2290  -11.6561    0.0000 C   0  0  0  0  0  0  0  0  0  0  0  0
   32.8055  -11.0795    0.0000 C   0  0  0  0  0  0  0  0  0  0  0  0
   32.8057  -13.0525    0.0000 C   0  0  0  0  0  0  0  0  0  0  0  0
   34.2019  -12.4758    0.0000 C   0  0  0  0  0  0  0  0  0  0  0  0
   33.6252  -11.0794    0.0000 C   0  0  0  0  0  0  0  0  0  0  0  0
   32.4928  -10.3246    0.0000 O   0  0  0  0  0  0  0  0  0  0  0  0
   33.9379  -10.3244    0.0000 C   0  0  0  0  0  0  0  0  0  0  0  0
   36.3567  -13.3632    0.0000 O   0  0  0  0  0  0  0  0  0  0  0  0
   33.8906  -14.3796    0.0000 O   0  0  0  0  0  0  0  0  0  0  0  0
   34.3024  -15.0857    0.0000 C   0  0  0  0  0  0  0  0  0  0  0  0
   33.8971  -15.7953    0.0000 C   0  0  0  0  0  0  0  0  0  0  0  0
   35.1196  -15.0818    0.0000 O   0  0  0  0  0  0  0  0  0  0  0  0
   35.4417  -14.3259    0.0000 O   0  0  0  0  0  0  0  0  0  0  0  0
   30.2212  -13.4468    0.0000 C   0  0  0  0  0  0  0  0  0  0  0  0
   29.8174  -14.1573    0.0000 C   0  0  0  0  0  0  0  0  0  0  0  0
   29.8078  -12.7419    0.0000 O   0  0  0  0  0  0  0  0  0  0  0  0
   32.4944  -13.8080    0.0000 O   0  0  0  0  0  0  0  0  0  0  0  0
   32.4895  -14.6228    0.0000 C   0  0  0  0  0  0  0  0  0  0  0  0
   33.1948  -15.0355    0.0000 O   0  0  0  0  0  0  0  0  0  0  0  0
   31.7794  -15.0272    0.0000 C   0  0  0  0  0  0  0  0  0  0  0  0
   29.0000  -14.1578    0.0000 C   0  0  0  0  0  0  0  0  0  0  0  0
   28.5963  -14.8674    0.0000 C   0  0  0  0  0  0  0  0  0  0  0  0
   29.0098  -15.5733    0.0000 C   0  0  0  0  0  0  0  0  0  0  0  0
   29.8311  -15.5651    0.0000 C   0  0  0  0  0  0  0  0  0  0  0  0
   30.2312  -14.8550    0.0000 C   0  0  0  0  0  0  0  0  0  0  0  0
   30.2526  -11.6512    0.0000 C   0  0  0  0  0  0  0  0  0  0  0  0
   30.2526  -12.4642    0.0000 O   0  0  0  0  0  0  0  0  0  0  0  0
   33.0792  -15.7961    0.0000 C   0  0  0  0  0  0  0  0  0  0  0  0
   32.6740  -16.5049    0.0000 C   0  0  0  0  0  0  0  0  0  0  0  0
   33.0860  -17.2117    0.0000 C   0  0  0  0  0  0  0  0  0  0  0  0
   33.9074  -17.2052    0.0000 C   0  0  0  0  0  0  0  0  0  0  0  0
   34.3089  -16.4959    0.0000 C   0  0  0  0  0  0  0  0  0  0  0  0
   36.2588  -14.3137    0.0000 C   0  0  0  0  0  0  0  0  0  0  0  0
   36.6779  -15.0153    0.0000 C   0  0  0  0  0  0  0  0  0  0  0  0
   36.6568  -13.6000    0.0000 O   0  0  0  0  0  0  0  0  0  0  0  0
  2  1  1  0
  3  2  1  0
  4  6  1  0
  6  7  1  0
  7  8  1  0
  8  2  1  0
  2  9  1  0
  9  5  2  0
 16 11  1  0
 11 10  1  0
 10 12  1  0
 12 15  1  0
 12 13  1  1
 16 14  1  1
 15 16  1  0
 16 17  1  0
 15 18  1  1
 18  4  1  0
  4 19  2  0
  5 20  1  0
 20 17  1  0
 17 21  2  0
 20 22  1  1
  8 23  2  0
  6 24  1  1
 24 25  1  0
 25 26  1  0
 25 27  2  0
  7 28  1  6
 13 29  1  0
 29 30  1  0
 29 31  2  0
 18 32  1  6
 32 33  1  0
 33 34  2  0
 33 35  1  0
 30 36  2  0
 36 37  1  0
 37 38  2  0
 38 39  1  0
 39 40  2  0
 40 30  1  0
 10 41  1  1
 10 42  1  0
 26 43  2  0
 43 44  1  0
 44 45  2  0
 45 46  1  0
 46 47  2  0
 47 26  1  0
 28 48  1  0
 48 49  1  0
 48 50  2  0
M  END
>  <Curated_InChIs>  (223) 
InChI=1S/C38H42O12/c1-21-18-19-36(5,6)32(42)30(48-24(4)40)29(49-34(43)25-14-10-8-11-15-25)22(2)28(47-23(3)39)27-33(37(7,45)20-38(27,46)31(21)41)50-35(44)26-16-12-9-13-17-26/h8-19,21,27-30,33,45-46H,2,20H2,1,3-7H3

>  <threshold>  (223) 
5

>  <pchembl>  (223) 
5.11

>  <Classification>  (223) 
1

>  <source>  (223) 
chembl_28

>  <SMILES>  (223) 
C=C1[C@H](OC(=O)c2ccccc2)[C@@H](OC(C)=O)C(=O)C(C)(C)/C=C/[C@H](C)C(=O)[C@@]2(O)C[C@@](C)(O)[C@H](OC(=O)c3ccccc3)[C@@H]2[C@H]1OC(C)=O

>  <InChIKey>  (223) 
VQZVZUWULBZKGV-KVBWYIDPSA-N

$$$$

     RDKit          2D

 42 44  0  0  0  0  0  0  0  0999 V2000
   20.0576    0.8667    0.0000 N   0  0  0  0  0  0  0  0  0  0  0  0
   20.8825    0.8667    0.0000 C   0  0  0  0  0  0  0  0  0  0  0  0
   20.4700    2.1375    0.0000 S   0  0  0  0  0  0  0  0  0  0  0  0
   19.8051    1.6575    0.0000 C   0  0  0  0  0  0  0  0  0  0  0  0
   19.0204    1.9112    0.0000 C   0  0  0  0  0  0  0  0  0  0  0  0
   18.8485    2.7127    0.0000 C   0  0  0  0  0  0  0  0  0  0  0  0
   18.4075    1.3553    0.0000 N   0  0  0  0  0  0  0  0  0  0  0  0
   19.4613    3.2686    0.0000 C   0  0  0  0  0  0  0  0  0  0  0  0
   18.0638    2.9748    0.0000 C   0  0  0  0  0  0  0  0  0  0  0  0
   21.3667    0.2014    0.0000 C   0  0  0  0  0  0  0  0  0  0  0  0
   21.0302   -0.5546    0.0000 O   0  0  0  0  0  0  0  0  0  0  0  0
   18.5794    0.5538    0.0000 C   0  0  0  0  0  0  0  0  0  0  0  0
   17.9666   -0.0062    0.0000 O   0  0  0  0  0  0  0  0  0  0  0  0
   19.3641    0.2918    0.0000 O   0  0  0  0  0  0  0  0  0  0  0  0
   17.1819    0.2516    0.0000 C   0  0  0  0  0  0  0  0  0  0  0  0
   16.5691   -0.3039    0.0000 C   0  0  0  0  0  0  0  0  0  0  0  0
   17.0100    1.0613    0.0000 C   0  0  0  0  0  0  0  0  0  0  0  0
   16.3536    0.2500    0.0000 C   0  0  0  0  0  0  0  0  0  0  0  0
   21.2190    1.6217    0.0000 C   0  0  0  0  0  0  0  0  0  0  0  0
   22.1872    0.2910    0.0000 N   0  0  0  0  0  0  0  0  0  0  0  0
   22.6714   -0.3841    0.0000 C   0  0  0  0  0  0  0  0  0  0  0  0
   23.4919   -0.2988    0.0000 C   0  0  0  0  0  0  0  0  0  0  0  0
   22.3349   -1.1373    0.0000 C   0  0  0  0  0  0  0  0  0  0  0  0
   21.5144   -1.2226    0.0000 C   0  0  0  0  0  0  0  0  0  0  0  0
   22.8191   -1.8053    0.0000 C   0  0  0  0  0  0  0  0  0  0  0  0
   24.0414   -0.9125    0.0000 N   0  0  0  0  0  0  0  0  0  0  0  0
   24.7954   -0.5777    0.0000 C   0  0  0  0  0  0  0  0  0  0  0  0
   24.7102    0.2488    0.0000 C   0  0  0  0  0  0  0  0  0  0  0  0
   23.9034    0.4181    0.0000 S   0  0  0  0  0  0  0  0  0  0  0  0
   25.5095   -0.9911    0.0000 C   0  0  0  0  0  0  0  0  0  0  0  0
   25.5085   -1.8161    0.0000 O   0  0  0  0  0  0  0  0  0  0  0  0
   26.2244   -0.5795    0.0000 N   0  0  0  0  0  0  0  0  0  0  0  0
   26.9383   -0.9928    0.0000 C   0  0  0  0  0  0  0  0  0  0  0  0
   27.6533   -0.5811    0.0000 C   0  0  0  0  0  0  0  0  0  0  0  0
   26.9373   -1.8177    0.0000 C   0  0  0  0  0  0  0  0  0  0  0  0
   28.3650   -0.9964    0.0000 C   0  0  0  0  0  0  0  0  0  0  0  0
   29.0794   -0.5855    0.0000 C   0  0  0  0  0  0  0  0  0  0  0  0
   29.0809    0.2429    0.0000 C   0  0  0  0  0  0  0  0  0  0  0  0
   28.3619    0.6548    0.0000 C   0  0  0  0  0  0  0  0  0  0  0  0
   27.6504    0.2431    0.0000 C   0  0  0  0  0  0  0  0  0  0  0  0
   29.7953    0.6553    0.0000 O   0  0  0  0  0  0  0  0  0  0  0  0
   30.5097    0.2427    0.0000 C   0  0  0  0  0  0  0  0  0  0  0  0
  1  2  1  0
  2 19  2  0
 19  3  1  0
  3  4  1  0
  4  1  2  0
  4  5  1  0
  5  6  1  0
  5  7  1  1
  6  8  1  0
  6  9  1  0
  2 10  1  0
 10 11  2  0
  7 12  1  0
 12 13  1  0
 12 14  2  0
 13 15  1  0
 15 16  1  0
 15 17  1  0
 15 18  1  0
 10 20  1  0
 21 20  1  6
 21 22  1  0
 21 23  1  0
 23 24  1  0
 23 25  1  0
 22 26  2  0
 26 27  1  0
 27 28  2  0
 28 29  1  0
 29 22  1  0
 27 30  1  0
 30 31  2  0
 30 32  1  0
 32 33  1  0
 33 34  1  0
 33 35  1  0
 34 36  2  0
 36 37  1  0
 37 38  2  0
 38 39  1  0
 39 40  2  0
 40 34  1  0
 38 41  1  0
 41 42  1  0
M  END
>  <Curated_InChIs>  (224) 
InChI=1S/C30H41N5O5S2/c1-16(2)23(27-32-21(14-41-27)25(36)31-18(5)19-10-12-20(39-9)13-11-19)34-26(37)22-15-42-28(33-22)24(17(3)4)35-29(38)40-30(6,7)8/h10-18,23-24H,1-9H3,(H,31,36)(H,34,37)(H,35,38)

>  <threshold>  (224) 
5

>  <pchembl>  (224) 
5.7

>  <Classification>  (224) 
1

>  <source>  (224) 
chembl_28

>  <SMILES>  (224) 
COc1ccc(C(C)NC(=O)c2csc([C@@H](NC(=O)c3csc([C@@H](NC(=O)OC(C)(C)C)C(C)C)n3)C(C)C)n2)cc1

>  <InChIKey>  (224) 
VYMGRTVYMLFJRF-JUQRWGLSSA-N

$$$$

     RDKit          2D

 33 37  0  0  0  0  0  0  0  0999 V2000
   31.5719   -4.2015    0.0000 C   0  0  0  0  0  0  0  0  0  0  0  0
   31.5707   -5.0210    0.0000 C   0  0  0  0  0  0  0  0  0  0  0  0
   32.2788   -5.4300    0.0000 C   0  0  0  0  0  0  0  0  0  0  0  0
   32.2770   -3.7926    0.0000 C   0  0  0  0  0  0  0  0  0  0  0  0
   32.9856   -4.1979    0.0000 C   0  0  0  0  0  0  0  0  0  0  0  0
   32.9859   -5.0211    0.0000 C   0  0  0  0  0  0  0  0  0  0  0  0
   33.7688   -5.2752    0.0000 N   0  0  0  0  0  0  0  0  0  0  0  0
   33.7684   -3.9433    0.0000 C   0  0  0  0  0  0  0  0  0  0  0  0
   34.2526   -4.6104    0.0000 C   0  0  0  0  0  0  0  0  0  0  0  0
   35.0679   -4.5252    0.0000 C   0  0  0  0  0  0  0  0  0  0  0  0
   35.4054   -3.7738    0.0000 N   0  0  0  0  0  0  0  0  0  0  0  0
   34.9212   -3.1067    0.0000 C   0  0  0  0  0  0  0  0  0  0  0  0
   34.0995   -3.1909    0.0000 C   0  0  0  0  0  0  0  0  0  0  0  0
   36.2183   -3.6899    0.0000 C   0  0  0  0  0  0  0  0  0  0  0  0
   36.6973   -4.3519    0.0000 O   0  0  0  0  0  0  0  0  0  0  0  0
   36.5520   -2.9440    0.0000 C   0  0  0  0  0  0  0  0  0  0  0  0
   37.3652   -2.8641    0.0000 C   0  0  0  0  0  0  0  0  0  0  0  0
   37.6989   -2.1190    0.0000 C   0  0  0  0  0  0  0  0  0  0  0  0
   37.2197   -1.4560    0.0000 C   0  0  0  0  0  0  0  0  0  0  0  0
   36.4029   -1.5430    0.0000 C   0  0  0  0  0  0  0  0  0  0  0  0
   36.0728   -2.2883    0.0000 C   0  0  0  0  0  0  0  0  0  0  0  0
   35.5478   -5.1838    0.0000 C   0  0  0  0  0  0  0  0  0  0  0  0
   35.2124   -5.9302    0.0000 C   0  0  0  0  0  0  0  0  0  0  0  0
   35.6908   -6.5918    0.0000 C   0  0  0  0  0  0  0  0  0  0  0  0
   36.5046   -6.5083    0.0000 C   0  0  0  0  0  0  0  0  0  0  0  0
   36.8377   -5.7574    0.0000 C   0  0  0  0  0  0  0  0  0  0  0  0
   36.3573   -5.0989    0.0000 C   0  0  0  0  0  0  0  0  0  0  0  0
   37.5525   -0.7097    0.0000 O   0  0  0  0  0  0  0  0  0  0  0  0
   38.3652   -0.6247    0.0000 C   0  0  0  0  0  0  0  0  0  0  0  0
   38.5119   -2.0355    0.0000 O   0  0  0  0  0  0  0  0  0  0  0  0
   38.9906   -2.6978    0.0000 C   0  0  0  0  0  0  0  0  0  0  0  0
   35.3566   -7.3376    0.0000 F   0  0  0  0  0  0  0  0  0  0  0  0
   36.9845   -7.1696    0.0000 F   0  0  0  0  0  0  0  0  0  0  0  0
  1  2  2  0
  2  3  1  0
  3  6  2  0
  5  4  2  0
  4  1  1  0
  5  6  1  0
  6  7  1  0
  7  9  1  0
  8  5  1  0
  8  9  2  0
  8 13  1  0
  9 10  1  0
 10 11  1  0
 11 12  1  0
 12 13  1  0
 11 14  1  0
 14 15  2  0
 14 16  1  0
 16 17  2  0
 17 18  1  0
 18 19  2  0
 19 20  1  0
 20 21  2  0
 21 16  1  0
 22 23  2  0
 23 24  1  0
 24 25  2  0
 25 26  1  0
 26 27  2  0
 27 22  1  0
 10 22  1  0
 19 28  1  0
 28 29  1  0
 18 30  1  0
 30 31  1  0
 24 32  1  0
 25 33  1  0
M  END
>  <Curated_InChIs>  (225) 
InChI=1S/C26H22F2N2O3/c1-32-22-10-8-16(14-23(22)33-2)26(31)30-12-11-18-17-5-3-4-6-21(17)29-24(18)25(30)15-7-9-19(27)20(28)13-15/h3-10,13-14,25,29H,11-12H2,1-2H3

>  <threshold>  (225) 
5

>  <pchembl>  (225) 
5.54

>  <Classification>  (225) 
1

>  <source>  (225) 
chembl_28

>  <SMILES>  (225) 
COc1ccc(C(=O)N2CCc3c([nH]c4ccccc34)C2c2ccc(F)c(F)c2)cc1OC

>  <InChIKey>  (225) 
WLRAQTWZGSZEJX-UHFFFAOYSA-N

$$$$

     RDKit          2D

 41 45  0  0  0  0  0  0  0  0999 V2000
   -2.5835   -5.2544    0.0000 C   0  0  0  0  0  0  0  0  0  0  0  0
   -2.5870   -3.7544    0.0000 C   0  0  0  0  0  0  0  0  0  0  0  0
   -3.8880   -3.0076    0.0000 C   0  0  0  0  0  0  0  0  0  0  0  0
   -5.1852   -3.7608    0.0000 C   0  0  0  0  0  0  0  0  0  0  0  0
   -5.1815   -5.2608    0.0000 C   0  0  0  0  0  0  0  0  0  0  0  0
   -3.8807   -6.0076    0.0000 C   0  0  0  0  0  0  0  0  0  0  0  0
   -6.4883   -3.0162    0.0000 C   0  0  0  0  0  0  0  0  0  0  0  0
   -6.4933   -1.8162    0.0000 O   0  0  0  0  0  0  0  0  0  0  0  0
   -7.7852   -3.7717    0.0000 C   0  0  0  0  0  0  0  0  0  0  0  0
   -9.0883   -3.0271    0.0000 C   0  0  0  0  0  0  0  0  0  0  0  0
  -10.3851   -3.7825    0.0000 C   0  0  0  0  0  0  0  0  0  0  0  0
  -11.6886   -3.0403    0.0000 C   0  0  0  0  0  0  0  0  0  0  0  0
  -12.9832   -3.7979    0.0000 C   0  0  0  0  0  0  0  0  0  0  0  0
  -12.9744   -5.2979    0.0000 C   0  0  0  0  0  0  0  0  0  0  0  0
  -11.6709   -6.0402    0.0000 C   0  0  0  0  0  0  0  0  0  0  0  0
  -10.3763   -5.2826    0.0000 C   0  0  0  0  0  0  0  0  0  0  0  0
   -1.2907   -2.9981    0.0000 N   0  0  0  0  0  0  0  0  0  0  0  0
   -1.2964   -1.4973    0.0000 C   0  0  0  0  0  0  0  0  0  0  0  0
   -1.2964    1.4973    0.0000 N   0  0  0  0  0  0  0  0  0  0  0  0
   -2.6111    0.7486    0.0000 C   0  0  0  0  0  0  0  0  0  0  0  0
   -2.6111   -0.7486    0.0000 N   0  0  0  0  0  0  0  0  0  0  0  0
    0.0000    0.7486    0.0000 C   0  0  0  0  0  0  0  0  0  0  0  0
    0.0000   -0.7486    0.0000 C   0  0  0  0  0  0  0  0  0  0  0  0
    1.2964   -1.4973    0.0000 C   0  0  0  0  0  0  0  0  0  0  0  0
    2.5929   -0.7486    0.0000 C   0  0  0  0  0  0  0  0  0  0  0  0
    2.5929    0.7486    0.0000 C   0  0  0  0  0  0  0  0  0  0  0  0
    1.2964    1.4973    0.0000 C   0  0  0  0  0  0  0  0  0  0  0  0
  -14.2681   -6.0587    0.0000 O   0  0  0  0  0  0  0  0  0  0  0  0
  -14.2859   -3.0525    0.0000 O   0  0  0  0  0  0  0  0  0  0  0  0
  -14.2912   -1.8525    0.0000 C   0  0  0  0  0  0  0  0  0  0  0  0
  -14.2593   -7.2586    0.0000 C   0  0  0  0  0  0  0  0  0  0  0  0
   -3.9086    1.5029    0.0000 C   0  0  0  0  0  0  0  0  0  0  0  0
   -5.2125    0.7617    0.0000 C   0  0  0  0  0  0  0  0  0  0  0  0
   -6.5065    1.5203    0.0000 C   0  0  0  0  0  0  0  0  0  0  0  0
   -6.4965    3.0203    0.0000 C   0  0  0  0  0  0  0  0  0  0  0  0
   -5.1925    3.7616    0.0000 C   0  0  0  0  0  0  0  0  0  0  0  0
   -3.8985    3.0029    0.0000 C   0  0  0  0  0  0  0  0  0  0  0  0
   -7.7897    3.7820    0.0000 O   0  0  0  0  0  0  0  0  0  0  0  0
   -7.7800    4.9820    0.0000 C   0  0  0  0  0  0  0  0  0  0  0  0
   -7.8098    0.7759    0.0000 O   0  0  0  0  0  0  0  0  0  0  0  0
   -7.8161   -0.4241    0.0000 C   0  0  0  0  0  0  0  0  0  0  0  0
  1  2  2  0
  2  3  1  0
  3  4  2  0
  4  5  1  0
  5  6  2  0
  6  1  1  0
  4  7  1  0
  7  8  2  0
  7  9  1  0
  9 10  2  0
 10 11  1  0
 11 12  2  0
 12 13  1  0
 13 14  2  0
 14 15  1  0
 15 16  2  0
 16 11  1  0
  2 17  1  0
 17 18  1  0
 18 23  2  0
 22 19  2  0
 19 20  1  0
 20 21  2  0
 21 18  1  0
 22 23  1  0
 23 24  1  0
 24 25  2  0
 25 26  1  0
 26 27  2  0
 27 22  1  0
 14 28  1  0
 13 29  1  0
 29 30  1  0
 28 31  1  0
 20 32  1  0
 32 33  2  0
 33 34  1  0
 34 35  2  0
 35 36  1  0
 36 37  2  0
 37 32  1  0
 35 38  1  0
 38 39  1  0
 34 40  1  0
 40 41  1  0
M  END
>  <Curated_InChIs>  (226) 
InChI=1S/C33H29N3O5/c1-38-28-16-13-21(18-30(28)40-3)12-15-27(37)22-8-7-9-24(19-22)34-33-25-10-5-6-11-26(25)35-32(36-33)23-14-17-29(39-2)31(20-23)41-4/h5-20H,1-4H3,(H,34,35,36)

>  <threshold>  (226) 
5

>  <pchembl>  (226) 
6.32

>  <Classification>  (226) 
1

>  <source>  (226) 
chembl_28

>  <SMILES>  (226) 
COc1ccc(/C=C/C(=O)c2cccc(Nc3nc(-c4ccc(OC)c(OC)c4)nc4ccccc34)c2)cc1OC

>  <InChIKey>  (226) 
WMVUETDQMUIBJX-NTCAYCPXSA-N

$$$$

     RDKit          2D

 37 40  0  0  0  0  0  0  0  0999 V2000
    5.6234   -5.8820    0.0000 N   0  0  0  0  0  0  0  0  0  0  0  0
    6.3346   -5.4723    0.0000 C   0  0  0  0  0  0  0  0  0  0  0  0
    7.0471   -5.8798    0.0000 C   0  0  0  0  0  0  0  0  0  0  0  0
    7.7582   -5.4701    0.0000 S   0  0  0  0  0  0  0  0  0  0  0  0
    6.3333   -4.6510    0.0000 O   0  0  0  0  0  0  0  0  0  0  0  0
    8.4707   -5.8776    0.0000 C   0  0  0  0  0  0  0  0  0  0  0  0
    9.1819   -5.4679    0.0000 C   0  0  0  0  0  0  0  0  0  0  0  0
    9.8944   -5.8754    0.0000 N   0  0  0  0  0  0  0  0  0  0  0  0
    9.1806   -4.6466    0.0000 O   0  0  0  0  0  0  0  0  0  0  0  0
   10.6056   -5.4657    0.0000 C   0  0  0  0  0  0  0  0  0  0  0  0
   11.3545   -5.7944    0.0000 N   0  0  0  0  0  0  0  0  0  0  0  0
   11.9004   -5.1821    0.0000 N   0  0  0  0  0  0  0  0  0  0  0  0
   11.4906   -4.4709    0.0000 C   0  0  0  0  0  0  0  0  0  0  0  0
   10.6875   -4.6463    0.0000 C   0  0  0  0  0  0  0  0  0  0  0  0
   11.8210   -3.7226    0.0000 C   0  0  0  0  0  0  0  0  0  0  0  0
   12.6390   -3.6370    0.0000 C   0  0  0  0  0  0  0  0  0  0  0  0
   12.9701   -2.8867    0.0000 C   0  0  0  0  0  0  0  0  0  0  0  0
   12.4885   -2.2254    0.0000 C   0  0  0  0  0  0  0  0  0  0  0  0
   11.6679   -2.3152    0.0000 C   0  0  0  0  0  0  0  0  0  0  0  0
   11.3364   -3.0658    0.0000 C   0  0  0  0  0  0  0  0  0  0  0  0
   10.5199   -3.1547    0.0000 C   0  0  0  0  0  0  0  0  0  0  0  0
   12.8187   -1.4737    0.0000 C   0  0  0  0  0  0  0  0  0  0  0  0
   13.7869   -2.8003    0.0000 C   0  0  0  0  0  0  0  0  0  0  0  0
   11.5277   -6.5957    0.0000 C   0  0  0  0  0  0  0  0  0  0  0  0
   10.9159   -7.1478    0.0000 C   0  0  0  0  0  0  0  0  0  0  0  0
   11.0872   -7.9502    0.0000 C   0  0  0  0  0  0  0  0  0  0  0  0
   11.8698   -8.2016    0.0000 C   0  0  0  0  0  0  0  0  0  0  0  0
   12.4813   -7.6444    0.0000 C   0  0  0  0  0  0  0  0  0  0  0  0
   12.3068   -6.8441    0.0000 C   0  0  0  0  0  0  0  0  0  0  0  0
    5.6226   -6.6992    0.0000 C   0  0  0  0  0  0  0  0  0  0  0  0
    4.9145   -7.1071    0.0000 C   0  0  0  0  0  0  0  0  0  0  0  0
    4.2072   -6.6959    0.0000 C   0  0  0  0  0  0  0  0  0  0  0  0
    3.4996   -7.1031    0.0000 C   0  0  0  0  0  0  0  0  0  0  0  0
    3.4983   -7.9212    0.0000 C   0  0  0  0  0  0  0  0  0  0  0  0
    4.2106   -8.3303    0.0000 C   0  0  0  0  0  0  0  0  0  0  0  0
    4.9153   -7.9207    0.0000 C   0  0  0  0  0  0  0  0  0  0  0  0
    2.7908   -8.3300    0.0000 F   0  0  0  0  0  0  0  0  0  0  0  0
  1  2  1  0
  2  3  1  0
  3  4  1  0
  2  5  2  0
  4  6  1  0
  6  7  1  0
  7  8  1  0
  7  9  2  0
  8 10  1  0
 10 11  1  0
 11 12  1  0
 12 13  2  0
 13 14  1  0
 14 10  2  0
 15 16  2  0
 16 17  1  0
 17 18  2  0
 18 19  1  0
 19 20  2  0
 20 15  1  0
 13 15  1  0
 20 21  1  0
 18 22  1  0
 17 23  1  0
 24 25  2  0
 25 26  1  0
 26 27  2  0
 27 28  1  0
 28 29  2  0
 29 24  1  0
 11 24  1  0
  1 30  1  0
 30 31  1  0
 31 32  2  0
 32 33  1  0
 33 34  2  0
 34 35  1  0
 35 36  2  0
 36 31  1  0
 34 37  1  0
M  END
>  <Curated_InChIs>  (227) 
InChI=1S/C29H29FN4O2S/c1-19-13-21(3)25(14-20(19)2)26-15-27(34(33-26)24-7-5-4-6-8-24)32-29(36)18-37-17-28(35)31-16-22-9-11-23(30)12-10-22/h4-15H,16-18H2,1-3H3,(H,31,35)(H,32,36)

>  <threshold>  (227) 
5

>  <pchembl>  (227) 
6.42, 6.88, 6.34, 6.72

>  <Classification>  (227) 
1

>  <source>  (227) 
chembl_28

>  <SMILES>  (227) 
Cc1cc(C)c(-c2cc(NC(=O)CSCC(=O)NCc3ccc(F)cc3)n(-c3ccccc3)n2)cc1C

>  <InChIKey>  (227) 
WNBCWNUHZQIEPY-UHFFFAOYSA-N

$$$$

     RDKit          2D

 25 28  0  0  0  0  0  0  0  0999 V2000
   33.3714   -3.5122    0.0000 C   0  0  0  0  0  0  0  0  0  0  0  0
   33.3702   -4.3318    0.0000 C   0  0  0  0  0  0  0  0  0  0  0  0
   34.0783   -4.7407    0.0000 C   0  0  0  0  0  0  0  0  0  0  0  0
   34.0765   -3.1034    0.0000 C   0  0  0  0  0  0  0  0  0  0  0  0
   34.7851   -3.5086    0.0000 C   0  0  0  0  0  0  0  0  0  0  0  0
   34.7858   -4.3276    0.0000 C   0  0  0  0  0  0  0  0  0  0  0  0
   35.4944   -4.7347    0.0000 N   0  0  0  0  0  0  0  0  0  0  0  0
   36.2026   -4.3239    0.0000 C   0  0  0  0  0  0  0  0  0  0  0  0
   36.1979   -3.5018    0.0000 C   0  0  0  0  0  0  0  0  0  0  0  0
   35.4888   -3.0984    0.0000 C   0  0  0  0  0  0  0  0  0  0  0  0
   35.4845   -2.2812    0.0000 N   0  0  0  0  0  0  0  0  0  0  0  0
   36.1900   -1.8689    0.0000 C   0  0  0  0  0  0  0  0  0  0  0  0
   36.8953   -2.2771    0.0000 C   0  0  0  0  0  0  0  0  0  0  0  0
   37.6003   -1.8654    0.0000 C   0  0  0  0  0  0  0  0  0  0  0  0
   37.5964   -1.0474    0.0000 C   0  0  0  0  0  0  0  0  0  0  0  0
   36.8816   -0.6427    0.0000 C   0  0  0  0  0  0  0  0  0  0  0  0
   36.1795   -1.0567    0.0000 C   0  0  0  0  0  0  0  0  0  0  0  0
   36.9084   -4.7257    0.0000 C   0  0  0  0  0  0  0  0  0  0  0  0
   36.9102   -5.5440    0.0000 C   0  0  0  0  0  0  0  0  0  0  0  0
   37.6187   -5.9497    0.0000 C   0  0  0  0  0  0  0  0  0  0  0  0
   38.3258   -5.5383    0.0000 C   0  0  0  0  0  0  0  0  0  0  0  0
   38.3200   -4.7169    0.0000 C   0  0  0  0  0  0  0  0  0  0  0  0
   37.6109   -4.3149    0.0000 C   0  0  0  0  0  0  0  0  0  0  0  0
   38.3100   -2.2706    0.0000 O   0  0  0  0  0  0  0  0  0  0  0  0
   38.3139   -3.0878    0.0000 C   0  0  0  0  0  0  0  0  0  0  0  0
  1  2  2  0
  2  3  1  0
  3  6  2  0
  5  4  2  0
  4  1  1  0
  5  6  1  0
  6  7  1  0
  7  8  2  0
  8  9  1  0
  9 10  2  0
 10  5  1  0
 10 11  1  0
 11 12  1  0
 12 13  2  0
 13 14  1  0
 14 15  2  0
 15 16  1  0
 16 17  2  0
 17 12  1  0
 18 19  2  0
 19 20  1  0
 20 21  2  0
 21 22  1  0
 22 23  2  0
 23 18  1  0
  8 18  1  0
 14 24  1  0
 24 25  1  0
M  END
>  <Curated_InChIs>  (228) 
InChI=1S/C22H18N2O/c1-25-18-11-7-10-17(14-18)23-22-15-21(16-8-3-2-4-9-16)24-20-13-6-5-12-19(20)22/h2-15H,1H3,(H,23,24)

>  <threshold>  (228) 
5

>  <pchembl>  (228) 
5.54

>  <Classification>  (228) 
1

>  <source>  (228) 
chembl_28

>  <SMILES>  (228) 
COc1cccc(Nc2cc(-c3ccccc3)nc3ccccc23)c1

>  <InChIKey>  (228) 
WROGXTDUYKIWNZ-UHFFFAOYSA-N

$$$$

     RDKit          2D

 30 31  0  0  0  0  0  0  0  0999 V2000
   16.3342  -16.6533    0.0000 C   0  0  0  0  0  0  0  0  0  0  0  0
   16.3330  -17.4729    0.0000 C   0  0  0  0  0  0  0  0  0  0  0  0
   17.0411  -17.8818    0.0000 C   0  0  0  0  0  0  0  0  0  0  0  0
   17.7507  -17.4724    0.0000 C   0  0  0  0  0  0  0  0  0  0  0  0
   17.7479  -16.6497    0.0000 C   0  0  0  0  0  0  0  0  0  0  0  0
   17.0393  -16.2445    0.0000 C   0  0  0  0  0  0  0  0  0  0  0  0
   18.4541  -16.2385    0.0000 C   0  0  0  0  0  0  0  0  0  0  0  0
   19.1633  -16.6444    0.0000 C   0  0  0  0  0  0  0  0  0  0  0  0
   19.8695  -16.2331    0.0000 C   0  0  0  0  0  0  0  0  0  0  0  0
   20.5787  -16.6391    0.0000 C   0  0  0  0  0  0  0  0  0  0  0  0
   20.5787  -17.4551    0.0000 C   0  0  0  0  0  0  0  0  0  0  0  0
   21.2871  -17.8610    0.0000 C   0  0  0  0  0  0  0  0  0  0  0  0
   21.9942  -17.4497    0.0000 C   0  0  0  0  0  0  0  0  0  0  0  0
   21.9885  -16.6283    0.0000 C   0  0  0  0  0  0  0  0  0  0  0  0
   21.2795  -16.2261    0.0000 C   0  0  0  0  0  0  0  0  0  0  0  0
   18.4591  -17.8799    0.0000 O   0  0  0  0  0  0  0  0  0  0  0  0
   15.6250  -17.8809    0.0000 O   0  0  0  0  0  0  0  0  0  0  0  0
   15.6263  -16.2449    0.0000 C   0  0  0  0  0  0  0  0  0  0  0  0
   17.0368  -15.4273    0.0000 O   0  0  0  0  0  0  0  0  0  0  0  0
   18.4603  -18.6971    0.0000 C   0  0  0  0  0  0  0  0  0  0  0  0
   18.4510  -15.4213    0.0000 O   0  0  0  0  0  0  0  0  0  0  0  0
   15.6243  -18.6981    0.0000 C   0  0  0  0  0  0  0  0  0  0  0  0
   14.9187  -16.6537    0.0000 C   0  0  0  0  0  0  0  0  0  0  0  0
   14.2109  -16.2452    0.0000 C   0  0  0  0  0  0  0  0  0  0  0  0
   13.5033  -16.6540    0.0000 C   0  0  0  0  0  0  0  0  0  0  0  0
   14.2107  -15.4281    0.0000 C   0  0  0  0  0  0  0  0  0  0  0  0
   21.2898  -18.6782    0.0000 C   0  0  0  0  0  0  0  0  0  0  0  0
   20.5834  -19.0891    0.0000 F   0  0  0  0  0  0  0  0  0  0  0  0
   21.9988  -19.0844    0.0000 F   0  0  0  0  0  0  0  0  0  0  0  0
   21.2841  -19.4929    0.0000 F   0  0  0  0  0  0  0  0  0  0  0  0
  1  2  2  0
  2  3  1  0
  3  4  2  0
  4  5  1  0
  5  6  2  0
  6  1  1  0
  5  7  1  0
  7  8  1  0
  8  9  2  0
  9 10  1  0
 10 11  2  0
 11 12  1  0
 12 13  2  0
 13 14  1  0
 14 15  2  0
 15 10  1  0
  4 16  1  0
  2 17  1  0
  1 18  1  0
  6 19  1  0
 16 20  1  0
  7 21  2  0
 17 22  1  0
 18 23  1  0
 23 24  2  3
 24 25  1  0
 24 26  1  0
 12 27  1  0
 27 28  1  0
 27 29  1  0
 27 30  1  0
M  END
>  <Curated_InChIs>  (229) 
InChI=1S/C23H23F3O4/c1-14(2)8-10-17-19(29-3)13-20(30-4)21(22(17)28)18(27)11-9-15-6-5-7-16(12-15)23(24,25)26/h5-9,11-13,28H,10H2,1-4H3

>  <threshold>  (229) 
5

>  <pchembl>  (229) 
5.2

>  <Classification>  (229) 
1

>  <source>  (229) 
chembl_28

>  <SMILES>  (229) 
COc1cc(OC)c(C(=O)/C=C/c2cccc(C(F)(F)F)c2)c(O)c1CC=C(C)C

>  <InChIKey>  (229) 
XDYYLDQDOVYZIJ-PKNBQFBNSA-N

$$$$

     RDKit          2D

 29 33  0  0  0  0  0  0  0  0999 V2000
   25.2366  -19.2452    0.0000 C   0  0  0  0  0  0  0  0  0  0  0  0
   25.2354  -20.0648    0.0000 C   0  0  0  0  0  0  0  0  0  0  0  0
   25.9435  -20.4737    0.0000 C   0  0  0  0  0  0  0  0  0  0  0  0
   25.9417  -18.8364    0.0000 C   0  0  0  0  0  0  0  0  0  0  0  0
   26.6503  -19.2416    0.0000 C   0  0  0  0  0  0  0  0  0  0  0  0
   26.6506  -20.0648    0.0000 C   0  0  0  0  0  0  0  0  0  0  0  0
   27.4335  -20.3190    0.0000 N   0  0  0  0  0  0  0  0  0  0  0  0
   27.4331  -18.9871    0.0000 C   0  0  0  0  0  0  0  0  0  0  0  0
   27.9173  -19.6542    0.0000 C   0  0  0  0  0  0  0  0  0  0  0  0
   28.7326  -19.5689    0.0000 C   0  0  0  0  0  0  0  0  0  0  0  0
   29.0701  -18.8175    0.0000 N   0  0  0  0  0  0  0  0  0  0  0  0
   28.5859  -18.1504    0.0000 C   0  0  0  0  0  0  0  0  0  0  0  0
   27.7642  -18.2347    0.0000 C   0  0  0  0  0  0  0  0  0  0  0  0
   29.8830  -18.7336    0.0000 C   0  0  0  0  0  0  0  0  0  0  0  0
   30.3621  -19.3956    0.0000 O   0  0  0  0  0  0  0  0  0  0  0  0
   30.2167  -17.9877    0.0000 C   0  0  0  0  0  0  0  0  0  0  0  0
   31.0299  -17.9079    0.0000 C   0  0  0  0  0  0  0  0  0  0  0  0
   31.3636  -17.1628    0.0000 C   0  0  0  0  0  0  0  0  0  0  0  0
   30.8844  -16.4998    0.0000 C   0  0  0  0  0  0  0  0  0  0  0  0
   30.0676  -16.5867    0.0000 C   0  0  0  0  0  0  0  0  0  0  0  0
   29.7375  -17.3320    0.0000 C   0  0  0  0  0  0  0  0  0  0  0  0
   29.2126  -20.2276    0.0000 C   0  0  0  0  0  0  0  0  0  0  0  0
   28.8771  -20.9739    0.0000 C   0  0  0  0  0  0  0  0  0  0  0  0
   29.3555  -21.6356    0.0000 C   0  0  0  0  0  0  0  0  0  0  0  0
   30.1693  -21.5520    0.0000 C   0  0  0  0  0  0  0  0  0  0  0  0
   30.5024  -20.8012    0.0000 C   0  0  0  0  0  0  0  0  0  0  0  0
   30.0220  -20.1427    0.0000 C   0  0  0  0  0  0  0  0  0  0  0  0
   27.6859  -21.0962    0.0000 C   0  0  0  0  0  0  0  0  0  0  0  0
   27.1389  -21.7034    0.0000 C   0  0  0  0  0  0  0  0  0  0  0  0
  1  2  2  0
  2  3  1  0
  3  6  2  0
  5  4  2  0
  4  1  1  0
  5  6  1  0
  6  7  1  0
  7  9  1  0
  8  5  1  0
  8  9  2  0
  8 13  1  0
  9 10  1  0
 10 11  1  0
 11 12  1  0
 12 13  1  0
 11 14  1  0
 14 15  2  0
 14 16  1  0
 16 17  2  0
 17 18  1  0
 18 19  2  0
 19 20  1  0
 20 21  2  0
 21 16  1  0
 22 23  2  0
 23 24  1  0
 24 25  2  0
 25 26  1  0
 26 27  2  0
 27 22  1  0
 10 22  1  0
  7 28  1  0
 28 29  1  0
M  END
>  <Curated_InChIs>  (230) 
InChI=1S/C26H24N2O/c1-2-27-23-16-10-9-15-21(23)22-17-18-28(26(29)20-13-7-4-8-14-20)24(25(22)27)19-11-5-3-6-12-19/h3-16,24H,2,17-18H2,1H3

>  <threshold>  (230) 
5

>  <pchembl>  (230) 
5.04

>  <Classification>  (230) 
1

>  <source>  (230) 
chembl_28

>  <SMILES>  (230) 
CCn1c2c(c3ccccc31)CCN(C(=O)c1ccccc1)C2c1ccccc1

>  <InChIKey>  (230) 
XGXFMQLSPAGIME-UHFFFAOYSA-N

$$$$

     RDKit          2D

 36 40  0  0  0  0  0  0  0  0999 V2000
   31.8292   -3.2605    0.0000 C   0  0  0  0  0  0  0  0  0  0  0  0
   31.8292   -4.0818    0.0000 C   0  0  0  0  0  0  0  0  0  0  0  0
   32.5386   -4.4904    0.0000 O   0  0  0  0  0  0  0  0  0  0  0  0
   32.5386   -2.8478    0.0000 C   0  0  0  0  0  0  0  0  0  0  0  0
   33.2439   -3.2605    0.0000 C   0  0  0  0  0  0  0  0  0  0  0  0
   33.2423   -4.0800    0.0000 C   0  0  0  0  0  0  0  0  0  0  0  0
   33.9506   -4.4914    0.0000 C   0  0  0  0  0  0  0  0  0  0  0  0
   34.6610   -4.0803    0.0000 C   0  0  0  0  0  0  0  0  0  0  0  0
   34.6587   -3.2577    0.0000 C   0  0  0  0  0  0  0  0  0  0  0  0
   33.9498   -2.8541    0.0000 C   0  0  0  0  0  0  0  0  0  0  0  0
   32.5386   -2.0265    0.0000 O   0  0  0  0  0  0  0  0  0  0  0  0
   31.1179   -4.4956    0.0000 O   0  0  0  0  0  0  0  0  0  0  0  0
   30.4055   -4.0839    0.0000 C   0  0  0  0  0  0  0  0  0  0  0  0
   29.6943   -4.4976    0.0000 C   0  0  0  0  0  0  0  0  0  0  0  0
   28.9818   -4.0859    0.0000 N   0  0  0  0  0  0  0  0  0  0  0  0
   29.6955   -5.3189    0.0000 O   0  0  0  0  0  0  0  0  0  0  0  0
   28.2706   -4.4997    0.0000 C   0  0  0  0  0  0  0  0  0  0  0  0
   26.8532   -5.3216    0.0000 C   0  0  0  0  0  0  0  0  0  0  0  0
   27.5706   -5.7290    0.0000 C   0  0  0  0  0  0  0  0  0  0  0  0
   28.2743   -5.3177    0.0000 C   0  0  0  0  0  0  0  0  0  0  0  0
   31.1186   -2.8561    0.0000 C   0  0  0  0  0  0  0  0  0  0  0  0
   31.1175   -2.0337    0.0000 C   0  0  0  0  0  0  0  0  0  0  0  0
   30.4053   -1.6231    0.0000 C   0  0  0  0  0  0  0  0  0  0  0  0
   29.6937   -2.0380    0.0000 C   0  0  0  0  0  0  0  0  0  0  0  0
   29.6987   -2.8635    0.0000 C   0  0  0  0  0  0  0  0  0  0  0  0
   30.4115   -3.2662    0.0000 C   0  0  0  0  0  0  0  0  0  0  0  0
   26.8524   -4.4994    0.0000 C   0  0  0  0  0  0  0  0  0  0  0  0
   27.5633   -4.0910    0.0000 C   0  0  0  0  0  0  0  0  0  0  0  0
   27.5655   -3.2745    0.0000 C   0  0  0  0  0  0  0  0  0  0  0  0
   26.8576   -2.8655    0.0000 C   0  0  0  0  0  0  0  0  0  0  0  0
   26.1460   -3.2748    0.0000 C   0  0  0  0  0  0  0  0  0  0  0  0
   26.1473   -4.0899    0.0000 C   0  0  0  0  0  0  0  0  0  0  0  0
   30.4033   -0.8018    0.0000 O   0  0  0  0  0  0  0  0  0  0  0  0
   28.9801   -1.6282    0.0000 O   0  0  0  0  0  0  0  0  0  0  0  0
   28.9766   -0.8069    0.0000 C   0  0  0  0  0  0  0  0  0  0  0  0
   31.1141   -0.3915    0.0000 C   0  0  0  0  0  0  0  0  0  0  0  0
  1  2  2  0
  1  4  1  0
  2  3  1  0
  3  6  1  0
  5  4  1  0
  5  6  2  0
  6  7  1  0
  7  8  2  0
  8  9  1  0
  9 10  2  0
 10  5  1  0
  4 11  2  0
  2 12  1  0
 12 13  1  0
 13 14  1  0
 14 15  1  0
 14 16  2  0
 15 17  1  0
 17 28  2  0
 27 18  2  0
 18 19  1  0
 19 20  2  0
 20 17  1  0
 21 22  2  0
 22 23  1  0
 23 24  2  0
 24 25  1  0
 25 26  2  0
 26 21  1  0
  1 21  1  0
 27 28  1  0
 28 29  1  0
 29 30  2  0
 30 31  1  0
 31 32  2  0
 32 27  1  0
 23 33  1  0
 24 34  1  0
 34 35  1  0
 33 36  1  0
M  END
>  <Curated_InChIs>  (231) 
InChI=1S/C29H23NO6/c1-33-24-15-14-19(16-25(24)34-2)27-28(32)21-11-5-6-13-23(21)36-29(27)35-17-26(31)30-22-12-7-9-18-8-3-4-10-20(18)22/h3-16H,17H2,1-2H3,(H,30,31)

>  <threshold>  (231) 
5

>  <pchembl>  (231) 
5.26

>  <Classification>  (231) 
1

>  <source>  (231) 
chembl_28

>  <SMILES>  (231) 
COc1ccc(-c2c(OCC(=O)Nc3cccc4ccccc34)oc3ccccc3c2=O)cc1OC

>  <InChIKey>  (231) 
XHPZUDHNRXYEOQ-UHFFFAOYSA-N

$$$$

     RDKit          2D

 55 58  0  0  0  0  0  0  0  0999 V2000
   35.1125   -2.0833    0.0000 C   0  0  0  0  0  0  0  0  0  0  0  0
   34.7041   -2.8000    0.0000 C   0  0  0  0  0  0  0  0  0  0  0  0
   35.5289   -2.7953    0.0000 C   0  0  0  0  0  0  0  0  0  0  0  0
   32.7118   -3.6283    0.0000 C   0  0  0  0  0  0  0  0  0  0  0  0
   33.2925   -2.2161    0.0000 C   0  0  0  0  0  0  0  0  0  0  0  0
   33.2926   -4.2090    0.0000 C   0  0  0  0  0  0  0  0  0  0  0  0
   34.1199   -4.2090    0.0000 C   0  0  0  0  0  0  0  0  0  0  0  0
   34.7047   -3.6283    0.0000 C   0  0  0  0  0  0  0  0  0  0  0  0
   34.1199   -2.2160    0.0000 C   0  0  0  0  0  0  0  0  0  0  0  0
   30.0208   -2.6292    0.0000 C   0  0  0  0  0  0  0  0  0  0  0  0
   30.5124   -1.9642    0.0000 C   0  0  0  0  0  0  0  0  0  0  0  0
   30.5055   -3.3064    0.0000 C   0  0  0  0  0  0  0  0  0  0  0  0
   30.0974   -4.0239    0.0000 O   0  0  0  0  0  0  0  0  0  0  0  0
   29.1958   -2.6228    0.0000 C   0  0  0  0  0  0  0  0  0  0  0  0
   30.8778   -1.5051    0.0000 O   0  0  0  0  0  0  0  0  0  0  0  0
   31.2993   -3.0492    0.0000 C   0  0  0  0  0  0  0  0  0  0  0  0
   31.2994   -2.2216    0.0000 C   0  0  0  0  0  0  0  0  0  0  0  0
   31.8815   -1.6396    0.0000 C   0  0  0  0  0  0  0  0  0  0  0  0
   31.8816   -3.6314    0.0000 C   0  0  0  0  0  0  0  0  0  0  0  0
   33.2912   -3.0492    0.0000 C   0  0  0  0  0  0  0  0  0  0  0  0
   32.7090   -1.6394    0.0000 C   0  0  0  0  0  0  0  0  0  0  0  0
   30.0528   -1.5125    0.0000 C   0  0  0  0  0  0  0  0  0  0  0  0
   29.6340   -0.8018    0.0000 O   0  0  0  0  0  0  0  0  0  0  0  0
   29.6468   -2.2306    0.0000 C   0  0  0  0  0  0  0  0  0  0  0  0
   31.5657   -0.8774    0.0000 O   0  0  0  0  0  0  0  0  0  0  0  0
   33.0246   -0.8772    0.0000 C   0  0  0  0  0  0  0  0  0  0  0  0
   32.9769   -4.9712    0.0000 O   0  0  0  0  0  0  0  0  0  0  0  0
   33.3926   -5.6840    0.0000 C   0  0  0  0  0  0  0  0  0  0  0  0
   32.9835   -6.4004    0.0000 C   0  0  0  0  0  0  0  0  0  0  0  0
   34.2176   -5.6802    0.0000 O   0  0  0  0  0  0  0  0  0  0  0  0
   34.5428   -4.9169    0.0000 O   0  0  0  0  0  0  0  0  0  0  0  0
   35.3677   -4.9050    0.0000 C   0  0  0  0  0  0  0  0  0  0  0  0
   35.7905   -5.6134    0.0000 C   0  0  0  0  0  0  0  0  0  0  0  0
   35.7698   -4.1846    0.0000 O   0  0  0  0  0  0  0  0  0  0  0  0
   29.2724   -4.0295    0.0000 C   0  0  0  0  0  0  0  0  0  0  0  0
   28.8648   -4.7467    0.0000 C   0  0  0  0  0  0  0  0  0  0  0  0
   28.8551   -3.3178    0.0000 O   0  0  0  0  0  0  0  0  0  0  0  0
   28.0417   -4.7488    0.0000 C   0  0  0  0  0  0  0  0  0  0  0  0
   27.6341   -5.4652    0.0000 C   0  0  0  0  0  0  0  0  0  0  0  0
   28.0515   -6.1779    0.0000 C   0  0  0  0  0  0  0  0  0  0  0  0
   28.8807   -6.1696    0.0000 C   0  0  0  0  0  0  0  0  0  0  0  0
   29.2845   -5.4527    0.0000 C   0  0  0  0  0  0  0  0  0  0  0  0
   31.5673   -4.3942    0.0000 O   0  0  0  0  0  0  0  0  0  0  0  0
   31.5625   -5.2167    0.0000 C   0  0  0  0  0  0  0  0  0  0  0  0
   32.2744   -5.6334    0.0000 O   0  0  0  0  0  0  0  0  0  0  0  0
   30.8455   -5.6249    0.0000 C   0  0  0  0  0  0  0  0  0  0  0  0
   35.5291   -3.6250    0.0000 O   0  0  0  0  0  0  0  0  0  0  0  0
   36.3250   -3.8375    0.0000 C   0  0  0  0  0  0  0  0  0  0  0  0
   36.9078   -3.2536    0.0000 O   0  0  0  0  0  0  0  0  0  0  0  0
   36.5392   -4.6342    0.0000 C   0  0  0  0  0  0  0  0  0  0  0  0
   32.1578   -6.4013    0.0000 C   0  0  0  0  0  0  0  0  0  0  0  0
   31.7487   -7.1168    0.0000 C   0  0  0  0  0  0  0  0  0  0  0  0
   32.1646   -7.8303    0.0000 C   0  0  0  0  0  0  0  0  0  0  0  0
   32.9938   -7.8237    0.0000 C   0  0  0  0  0  0  0  0  0  0  0  0
   33.3992   -7.1077    0.0000 C   0  0  0  0  0  0  0  0  0  0  0  0
  2  1  1  0
  3  2  1  0
  4  6  1  0
  6  7  1  0
  7  8  1  0
  8  2  1  0
  2  9  1  0
  9  5  2  0
 17 11  1  0
 11 10  1  0
 10 12  1  0
 12 16  1  0
 12 13  1  1
 10 14  1  1
 17 15  1  1
 16 17  1  0
 17 18  1  0
 16 19  1  1
 19  4  1  0
  4 20  2  0
  5 21  1  0
 21 18  1  0
 15 22  1  0
 22 23  2  0
 22 24  1  0
 18 25  2  0
 21 26  1  1
  6 27  1  1
 27 28  1  0
 28 29  1  0
 28 30  2  0
  7 31  1  6
 31 32  1  0
 32 33  1  0
 32 34  2  0
 13 35  1  0
 35 36  1  0
 35 37  2  0
 36 38  2  0
 38 39  1  0
 39 40  2  0
 40 41  1  0
 41 42  2  0
 42 36  1  0
 19 43  1  6
 43 44  1  0
 44 45  2  0
 44 46  1  0
  8 47  1  6
 47 48  1  0
 48 49  2  0
 48 50  1  0
 29 51  2  0
 51 52  1  0
 52 53  2  0
 53 54  1  0
 54 55  2  0
 55 29  1  0
M  END
>  <Curated_InChIs>  (232) 
InChI=1S/C42H48O13/c1-23-20-21-41(8,9)38(52-28(6)45)36(51-27(5)44)35(54-40(49)31-18-14-11-15-19-31)25(3)34(50-26(4)43)32-33(53-39(48)30-16-12-10-13-17-30)24(2)22-42(32,37(23)47)55-29(7)46/h10-21,23-24,32-36,38H,3,22H2,1-2,4-9H3

>  <threshold>  (232) 
5

>  <pchembl>  (232) 
5.0

>  <Classification>  (232) 
1

>  <source>  (232) 
chembl_28

>  <SMILES>  (232) 
C=C1[C@H](OC(=O)c2ccccc2)[C@@H](OC(C)=O)[C@@H](OC(C)=O)C(C)(C)/C=C/[C@H](C)C(=O)[C@@]2(OC(C)=O)C[C@H](C)[C@H](OC(=O)c3ccccc3)[C@@H]2[C@H]1OC(C)=O

>  <InChIKey>  (232) 
XPTJGPDBFDXBFO-RMAIYOACSA-N

$$$$

     RDKit          2D

 36 39  0  0  0  0  0  0  0  0999 V2000
   -2.6111    0.7486    0.0000 C   0  0  0  0  0  0  0  0  0  0  0  0
   -2.6111   -0.7486    0.0000 C   0  0  0  0  0  0  0  0  0  0  0  0
   -1.2964   -1.4973    0.0000 C   0  0  0  0  0  0  0  0  0  0  0  0
   -1.2964    1.4973    0.0000 C   0  0  0  0  0  0  0  0  0  0  0  0
    0.0000    0.7486    0.0000 C   0  0  0  0  0  0  0  0  0  0  0  0
    0.0000   -0.7486    0.0000 C   0  0  0  0  0  0  0  0  0  0  0  0
    1.2964   -1.4973    0.0000 C   0  0  0  0  0  0  0  0  0  0  0  0
    2.5929   -0.7486    0.0000 C   0  0  0  0  0  0  0  0  0  0  0  0
    2.5929    0.7486    0.0000 C   0  0  0  0  0  0  0  0  0  0  0  0
    1.2964    1.4973    0.0000 O   0  0  0  0  0  0  0  0  0  0  0  0
   -1.2907   -2.9981    0.0000 O   0  0  0  0  0  0  0  0  0  0  0  0
   -3.9091    1.5019    0.0000 O   0  0  0  0  0  0  0  0  0  0  0  0
    3.8926    1.4990    0.0000 C   0  0  0  0  0  0  0  0  0  0  0  0
    3.8951    2.9990    0.0000 C   0  0  0  0  0  0  0  0  0  0  0  0
    5.1953    3.7469    0.0000 C   0  0  0  0  0  0  0  0  0  0  0  0
    6.4931    2.9949    0.0000 C   0  0  0  0  0  0  0  0  0  0  0  0
    6.4907    1.4949    0.0000 C   0  0  0  0  0  0  0  0  0  0  0  0
    5.1905    0.7469    0.0000 C   0  0  0  0  0  0  0  0  0  0  0  0
    7.7878    0.7397    0.0000 O   0  0  0  0  0  0  0  0  0  0  0  0
    7.7956    3.7405    0.0000 O   0  0  0  0  0  0  0  0  0  0  0  0
    5.1946    5.2478    0.0000 O   0  0  0  0  0  0  0  0  0  0  0  0
    3.8911   -1.5017    0.0000 O   0  0  0  0  0  0  0  0  0  0  0  0
   -3.9072    2.7019    0.0000 C   0  0  0  0  0  0  0  0  0  0  0  0
   -2.3272   -3.6028    0.0000 C   0  0  0  0  0  0  0  0  0  0  0  0
    4.1555    5.8480    0.0000 C   0  0  0  0  0  0  0  0  0  0  0  0
    8.8331    3.1374    0.0000 C   0  0  0  0  0  0  0  0  0  0  0  0
    7.7841   -0.4603    0.0000 C   0  0  0  0  0  0  0  0  0  0  0  0
    3.8890   -3.0026    0.0000 C   0  0  0  0  0  0  0  0  0  0  0  0
    2.8487   -3.6008    0.0000 O   0  0  0  0  0  0  0  0  0  0  0  0
    5.1872   -3.7556    0.0000 C   0  0  0  0  0  0  0  0  0  0  0  0
    5.1872   -5.2557    0.0000 C   0  0  0  0  0  0  0  0  0  0  0  0
    6.4863   -6.0057    0.0000 C   0  0  0  0  0  0  0  0  0  0  0  0
    7.7853   -5.2557    0.0000 C   0  0  0  0  0  0  0  0  0  0  0  0
    7.7853   -3.7557    0.0000 C   0  0  0  0  0  0  0  0  0  0  0  0
    6.4863   -3.0057    0.0000 C   0  0  0  0  0  0  0  0  0  0  0  0
    8.8246   -3.1558    0.0000 F   0  0  0  0  0  0  0  0  0  0  0  0
  1  2  2  0
  2  3  1  0
  3  6  2  0
  5  4  2  0
  4  1  1  0
  5  6  1  0
  5 10  1  0
  6  7  1  0
  7  8  1  0
  8  9  1  0
  9 10  1  0
  3 11  1  0
  1 12  1  0
 13 14  2  0
 14 15  1  0
 15 16  2  0
 16 17  1  0
 17 18  2  0
 18 13  1  0
  9 13  1  6
 17 19  1  0
 16 20  1  0
 15 21  1  0
  8 22  1  6
 12 23  1  0
 11 24  1  0
 21 25  1  0
 20 26  1  0
 19 27  1  0
 22 28  1  0
 28 29  2  0
 28 30  1  0
 30 31  2  0
 31 32  1  0
 32 33  2  0
 33 34  1  0
 34 35  2  0
 35 30  1  0
 34 36  1  0
M  END
>  <Curated_InChIs>  (233) 
InChI=1S/C27H27FO8/c1-30-18-12-20(31-2)19-14-24(36-27(29)15-7-6-8-17(28)9-15)25(35-21(19)13-18)16-10-22(32-3)26(34-5)23(11-16)33-4/h6-13,24-25H,14H2,1-5H3

>  <threshold>  (233) 
5

>  <pchembl>  (233) 
7.01

>  <Classification>  (233) 
1

>  <source>  (233) 
chembl_28

>  <SMILES>  (233) 
COc1cc(OC)c2c(c1)O[C@H](c1cc(OC)c(OC)c(OC)c1)[C@H](OC(=O)c1cccc(F)c1)C2

>  <InChIKey>  (233) 
XQGYRYBAIZWDNZ-JWQCQUIFSA-N

$$$$

     RDKit          2D

 32 35  0  0  0  0  0  0  0  0999 V2000
   25.4501  -14.3119    0.0000 O   0  0  0  0  0  0  0  0  0  0  0  0
   26.1568  -14.7222    0.0000 C   0  0  0  0  0  0  0  0  0  0  0  0
   26.1534  -15.5394    0.0000 C   0  0  0  0  0  0  0  0  0  0  0  0
   27.5683  -14.7212    0.0000 C   0  0  0  0  0  0  0  0  0  0  0  0
   26.8619  -14.3147    0.0000 C   0  0  0  0  0  0  0  0  0  0  0  0
   27.5690  -15.5427    0.0000 C   0  0  0  0  0  0  0  0  0  0  0  0
   26.8599  -15.9447    0.0000 C   0  0  0  0  0  0  0  0  0  0  0  0
   26.8535  -16.7553    0.0000 O   0  0  0  0  0  0  0  0  0  0  0  0
   27.5546  -17.1700    0.0000 C   0  0  0  0  0  0  0  0  0  0  0  0
   28.2637  -16.7680    0.0000 C   0  0  0  0  0  0  0  0  0  0  0  0
   28.2717  -15.9512    0.0000 C   0  0  0  0  0  0  0  0  0  0  0  0
   27.5471  -17.9871    0.0000 O   0  0  0  0  0  0  0  0  0  0  0  0
   28.9677  -17.1828    0.0000 C   0  0  0  0  0  0  0  0  0  0  0  0
   28.9820  -15.5472    0.0000 C   0  0  0  0  0  0  0  0  0  0  0  0
   19.0788  -14.7135    0.0000 C   0  0  0  0  0  0  0  0  0  0  0  0
   19.0776  -15.5331    0.0000 C   0  0  0  0  0  0  0  0  0  0  0  0
   19.7857  -15.9420    0.0000 C   0  0  0  0  0  0  0  0  0  0  0  0
   19.7839  -14.3047    0.0000 C   0  0  0  0  0  0  0  0  0  0  0  0
   20.4925  -14.7099    0.0000 C   0  0  0  0  0  0  0  0  0  0  0  0
   20.4913  -15.5306    0.0000 C   0  0  0  0  0  0  0  0  0  0  0  0
   21.1975  -15.9396    0.0000 C   0  0  0  0  0  0  0  0  0  0  0  0
   21.9094  -15.5326    0.0000 C   0  0  0  0  0  0  0  0  0  0  0  0
   21.9106  -14.7119    0.0000 N   0  0  0  0  0  0  0  0  0  0  0  0
   21.1998  -14.2983    0.0000 C   0  0  0  0  0  0  0  0  0  0  0  0
   22.6193  -14.3051    0.0000 C   0  0  0  0  0  0  0  0  0  0  0  0
   23.3260  -14.7154    0.0000 C   0  0  0  0  0  0  0  0  0  0  0  0
   24.0347  -14.3085    0.0000 C   0  0  0  0  0  0  0  0  0  0  0  0
   24.7414  -14.7188    0.0000 C   0  0  0  0  0  0  0  0  0  0  0  0
   18.3710  -14.3051    0.0000 O   0  0  0  0  0  0  0  0  0  0  0  0
   17.6633  -14.7139    0.0000 C   0  0  0  0  0  0  0  0  0  0  0  0
   18.3696  -15.9411    0.0000 O   0  0  0  0  0  0  0  0  0  0  0  0
   17.6622  -15.5319    0.0000 C   0  0  0  0  0  0  0  0  0  0  0  0
  1  2  1  0
  2  3  2  0
  3  7  1  0
  6  4  1  0
  4  5  2  0
  5  2  1  0
  6  7  2  0
  6 11  1  0
  7  8  1  0
  8  9  1  0
  9 10  1  0
 10 11  2  0
  9 12  2  0
 10 13  1  0
 11 14  1  0
 15 16  2  0
 16 17  1  0
 17 20  2  0
 19 18  2  0
 18 15  1  0
 19 20  1  0
 19 24  1  0
 20 21  1  0
 21 22  1  0
 22 23  1  0
 23 24  1  0
 23 25  1  0
 25 26  1  0
 26 27  1  0
 27 28  1  0
 28  1  1  0
 15 29  1  0
 29 30  1  0
 16 31  1  0
 31 32  1  0
M  END
>  <Curated_InChIs>  (234) 
InChI=1S/C26H31NO5/c1-17-18(2)26(28)32-23-15-21(7-8-22(17)23)31-12-6-5-10-27-11-9-19-13-24(29-3)25(30-4)14-20(19)16-27/h7-8,13-15H,5-6,9-12,16H2,1-4H3

>  <threshold>  (234) 
5

>  <pchembl>  (234) 
6.82

>  <Classification>  (234) 
1

>  <source>  (234) 
chembl_28

>  <SMILES>  (234) 
COc1cc2c(cc1OC)CN(CCCCOc1ccc3c(C)c(C)c(=O)oc3c1)CC2

>  <InChIKey>  (234) 
XUCMEJHZEBONIQ-UHFFFAOYSA-N

$$$$

     RDKit          2D

 25 28  0  0  0  0  0  0  0  0999 V2000
    0.9272   -3.6361    0.0000 C   0  0  0  0  0  0  0  0  0  0  0  0
    0.9261   -4.4597    0.0000 C   0  0  0  0  0  0  0  0  0  0  0  0
    1.6341   -4.8687    0.0000 C   0  0  0  0  0  0  0  0  0  0  0  0
    1.6323   -3.2231    0.0000 C   0  0  0  0  0  0  0  0  0  0  0  0
    2.3451   -3.6325    0.0000 C   0  0  0  0  0  0  0  0  0  0  0  0
    2.3458   -4.4556    0.0000 C   0  0  0  0  0  0  0  0  0  0  0  0
    3.0585   -4.8627    0.0000 N   0  0  0  0  0  0  0  0  0  0  0  0
    3.7709   -4.4518    0.0000 C   0  0  0  0  0  0  0  0  0  0  0  0
    3.7661   -3.6256    0.0000 C   0  0  0  0  0  0  0  0  0  0  0  0
    3.0529   -3.2181    0.0000 C   0  0  0  0  0  0  0  0  0  0  0  0
    3.0486   -2.3968    0.0000 N   0  0  0  0  0  0  0  0  0  0  0  0
    3.7582   -1.9844    0.0000 C   0  0  0  0  0  0  0  0  0  0  0  0
    4.4676   -2.3927    0.0000 C   0  0  0  0  0  0  0  0  0  0  0  0
    5.1768   -1.9810    0.0000 C   0  0  0  0  0  0  0  0  0  0  0  0
    5.1729   -1.1588    0.0000 C   0  0  0  0  0  0  0  0  0  0  0  0
    4.4540   -0.7500    0.0000 C   0  0  0  0  0  0  0  0  0  0  0  0
    3.7477   -1.1682    0.0000 C   0  0  0  0  0  0  0  0  0  0  0  0
    4.4807   -4.8536    0.0000 C   0  0  0  0  0  0  0  0  0  0  0  0
    4.4826   -5.6760    0.0000 C   0  0  0  0  0  0  0  0  0  0  0  0
    5.1952   -6.0859    0.0000 C   0  0  0  0  0  0  0  0  0  0  0  0
    5.9064   -5.6704    0.0000 C   0  0  0  0  0  0  0  0  0  0  0  0
    5.9006   -4.8449    0.0000 C   0  0  0  0  0  0  0  0  0  0  0  0
    5.1874   -4.4428    0.0000 C   0  0  0  0  0  0  0  0  0  0  0  0
    5.8822   -0.7432    0.0000 C   0  0  0  0  0  0  0  0  0  0  0  0
    6.5872   -0.3258    0.0000 N   0  0  0  0  0  0  0  0  0  0  0  0
  1  2  2  0
  2  3  1  0
  3  6  2  0
  5  4  2  0
  4  1  1  0
  5  6  1  0
  6  7  1  0
  7  8  2  0
  8  9  1  0
  9 10  2  0
 10  5  1  0
 10 11  1  0
 11 12  1  0
 12 13  2  0
 13 14  1  0
 14 15  2  0
 15 16  1  0
 16 17  2  0
 17 12  1  0
 18 19  2  0
 19 20  1  0
 20 21  2  0
 21 22  1  0
 22 23  2  0
 23 18  1  0
  8 18  1  0
 24 25  3  0
 15 24  1  0
M  END
>  <Curated_InChIs>  (235) 
InChI=1S/C22H15N3/c23-15-16-10-12-18(13-11-16)24-22-14-21(17-6-2-1-3-7-17)25-20-9-5-4-8-19(20)22/h1-14H,(H,24,25)

>  <threshold>  (235) 
5

>  <pchembl>  (235) 
5.32

>  <Classification>  (235) 
1

>  <source>  (235) 
chembl_28

>  <SMILES>  (235) 
N#Cc1ccc(Nc2cc(-c3ccccc3)nc3ccccc23)cc1

>  <InChIKey>  (235) 
YDIZFRBIKCDJDU-UHFFFAOYSA-N

$$$$

     RDKit          2D

 48 52  0  0  0  0  0  0  0  0999 V2000
   -4.1342  -15.3525    0.0000 C   0  0  0  0  0  0  0  0  0  0  0  0
   -4.1342  -16.1794    0.0000 C   0  0  0  0  0  0  0  0  0  0  0  0
   -3.4194  -16.5882    0.0000 C   0  0  0  0  0  0  0  0  0  0  0  0
   -3.4194  -14.9344    0.0000 C   0  0  0  0  0  0  0  0  0  0  0  0
   -2.7046  -15.3525    0.0000 C   0  0  0  0  0  0  0  0  0  0  0  0
   -2.7035  -16.1794    0.0000 C   0  0  0  0  0  0  0  0  0  0  0  0
   -1.9928  -16.5872    0.0000 C   0  0  0  0  0  0  0  0  0  0  0  0
   -1.2738  -16.1775    0.0000 C   0  0  0  0  0  0  0  0  0  0  0  0
   -1.2750  -15.3507    0.0000 C   0  0  0  0  0  0  0  0  0  0  0  0
   -1.9973  -14.9343    0.0000 C   0  0  0  0  0  0  0  0  0  0  0  0
   -2.7128  -16.9969    0.0000 O   0  0  0  0  0  0  0  0  0  0  0  0
   -1.2821  -16.9969    0.0000 C   0  0  0  0  0  0  0  0  0  0  0  0
   -0.4924  -16.7786    0.0000 C   0  0  0  0  0  0  0  0  0  0  0  0
   -0.8780  -17.7031    0.0000 C   0  0  0  0  0  0  0  0  0  0  0  0
   -1.9929  -17.4094    0.0000 O   0  0  0  0  0  0  0  0  0  0  0  0
   -1.5609  -14.2379    0.0000 O   0  0  0  0  0  0  0  0  0  0  0  0
   -0.7392  -14.2647    0.0000 C   0  0  0  0  0  0  0  0  0  0  0  0
   -0.3356  -13.5414    0.0000 C   0  0  0  0  0  0  0  0  0  0  0  0
    0.4875  -13.5445    0.0000 C   0  0  0  0  0  0  0  0  0  0  0  0
    0.8980  -12.8289    0.0000 C   0  0  0  0  0  0  0  0  0  0  0  0
    0.4852  -12.1168    0.0000 C   0  0  0  0  0  0  0  0  0  0  0  0
   -0.3425  -12.1249    0.0000 C   0  0  0  0  0  0  0  0  0  0  0  0
   -0.7477  -12.8347    0.0000 C   0  0  0  0  0  0  0  0  0  0  0  0
   -2.7128  -14.5303    0.0000 C   0  0  0  0  0  0  0  0  0  0  0  0
   -2.0067  -14.1098    0.0000 O   0  0  0  0  0  0  0  0  0  0  0  0
   -3.4206  -14.1122    0.0000 O   0  0  0  0  0  0  0  0  0  0  0  0
   -4.1360  -13.7045    0.0000 C   0  0  0  0  0  0  0  0  0  0  0  0
   -4.1371  -12.8776    0.0000 C   0  0  0  0  0  0  0  0  0  0  0  0
   -4.8456  -14.1142    0.0000 O   0  0  0  0  0  0  0  0  0  0  0  0
   -4.8455  -14.9409    0.0000 O   0  0  0  0  0  0  0  0  0  0  0  0
   -5.5592  -15.3561    0.0000 C   0  0  0  0  0  0  0  0  0  0  0  0
   -6.2705  -14.9443    0.0000 C   0  0  0  0  0  0  0  0  0  0  0  0
   -5.5572  -16.1781    0.0000 O   0  0  0  0  0  0  0  0  0  0  0  0
   -3.4282  -15.7660    0.0000 C   0  0  0  0  0  0  0  0  0  0  0  0
   -3.4282  -17.4104    0.0000 O   0  0  0  0  0  0  0  0  0  0  0  0
   -2.7031  -17.8228    0.0000 C   0  0  0  0  0  0  0  0  0  0  0  0
   -2.7032  -18.6450    0.0000 O   0  0  0  0  0  0  0  0  0  0  0  0
   -3.4979  -18.0281    0.0000 C   0  0  0  0  0  0  0  0  0  0  0  0
   -0.5512  -14.9318    0.0000 O   0  0  0  0  0  0  0  0  0  0  0  0
    0.1732  -15.3493    0.0000 C   0  0  0  0  0  0  0  0  0  0  0  0
    0.8970  -14.9304    0.0000 C   0  0  0  0  0  0  0  0  0  0  0  0
    1.6203  -15.3508    0.0000 C   0  0  0  0  0  0  0  0  0  0  0  0
    2.3435  -14.9327    0.0000 C   0  0  0  0  0  0  0  0  0  0  0  0
    2.3432  -14.0957    0.0000 C   0  0  0  0  0  0  0  0  0  0  0  0
    1.6135  -13.6785    0.0000 C   0  0  0  0  0  0  0  0  0  0  0  0
    0.8933  -14.0991    0.0000 C   0  0  0  0  0  0  0  0  0  0  0  0
    0.1741  -16.1854    0.0000 O   0  0  0  0  0  0  0  0  0  0  0  0
    0.0604  -14.4745    0.0000 O   0  0  0  0  0  0  0  0  0  0  0  0
 23 18  1  0
  6 11  1  1
  5 24  1  6
 24 25  1  0
  8 12  1  1
  4 26  1  6
 11 12  1  0
 26 27  1  0
  1  2  1  0
 27 28  1  0
 12 13  1  0
 27 29  2  0
  1  4  1  0
  1 30  1  6
 12 14  1  0
 30 31  1  0
  2  3  1  0
 31 32  1  0
  7 15  1  1
 31 33  2  0
  3  6  1  0
  3 34  1  1
 10 16  1  1
  3 35  1  0
  5  4  1  0
 15 36  1  0
 16 17  1  0
 36 37  2  0
  5 10  1  0
 36 38  1  0
 17 18  1  0
  9 39  1  1
  6  7  1  0
 39 40  1  0
 18 19  2  0
 40 41  1  0
  7  8  1  0
 41 42  2  0
 19 20  1  0
 42 43  1  0
  8  9  1  0
 43 44  2  0
 20 21  2  0
 44 45  1  0
  9 10  1  0
 45 46  2  0
 46 41  1  0
 21 22  1  0
 40 47  2  0
  5  6  1  0
 17 48  2  0
 22 23  2  0
M  END
>  <Curated_InChIs>  (236) 
InChI=1S/C35H40O13/c1-19(37)43-24-17-33(6,42)35-28(45-21(3)39)25(32(4,5)48-35)26(46-30(40)22-13-9-7-10-14-22)29(34(35,18-36)27(24)44-20(2)38)47-31(41)23-15-11-8-12-16-23/h7-16,24-29,36,42H,17-18H2,1-6H3

>  <threshold>  (236) 
5

>  <pchembl>  (236) 
5.15

>  <Classification>  (236) 
1

>  <source>  (236) 
chembl_28

>  <SMILES>  (236) 
CC(=O)O[C@H]1C[C@@](C)(O)[C@]23OC(C)(C)[C@H]([C@H](OC(=O)c4ccccc4)[C@H](OC(=O)c4ccccc4)[C@]2(CO)[C@H]1OC(C)=O)[C@H]3OC(C)=O

>  <InChIKey>  (236) 
YFFWLVHQZDPHKC-YVZSNWEISA-N

$$$$

     RDKit          2D

 31 33  0  0  0  0  0  0  0  0999 V2000
   31.4581  -12.1528    0.0000 C   0  0  0  0  0  0  0  0  0  0  0  0
   31.4581  -12.9730    0.0000 C   0  0  0  0  0  0  0  0  0  0  0  0
   32.1706  -13.3829    0.0000 C   0  0  0  0  0  0  0  0  0  0  0  0
   32.8777  -12.9675    0.0000 C   0  0  0  0  0  0  0  0  0  0  0  0
   32.8720  -12.1420    0.0000 C   0  0  0  0  0  0  0  0  0  0  0  0
   32.1630  -11.7398    0.0000 C   0  0  0  0  0  0  0  0  0  0  0  0
   33.5915  -13.3808    0.0000 N   0  0  0  0  0  0  0  0  0  0  0  0
   33.5937  -14.2031    0.0000 C   0  0  0  0  0  0  0  0  0  0  0  0
   34.3036  -14.6080    0.0000 C   0  0  0  0  0  0  0  0  0  0  0  0
   35.0157  -14.1993    0.0000 N   0  0  0  0  0  0  0  0  0  0  0  0
   35.0135  -13.3770    0.0000 C   0  0  0  0  0  0  0  0  0  0  0  0
   34.2991  -12.9635    0.0000 C   0  0  0  0  0  0  0  0  0  0  0  0
   30.7469  -13.3869    0.0000 C   0  0  0  0  0  0  0  0  0  0  0  0
   30.0344  -12.9753    0.0000 C   0  0  0  0  0  0  0  0  0  0  0  0
   29.3232  -13.3892    0.0000 C   0  0  0  0  0  0  0  0  0  0  0  0
   28.6107  -12.9777    0.0000 C   0  0  0  0  0  0  0  0  0  0  0  0
   29.3246  -14.2105    0.0000 O   0  0  0  0  0  0  0  0  0  0  0  0
   28.6129  -12.1569    0.0000 C   0  0  0  0  0  0  0  0  0  0  0  0
   27.9012  -11.7496    0.0000 C   0  0  0  0  0  0  0  0  0  0  0  0
   27.1891  -12.1594    0.0000 C   0  0  0  0  0  0  0  0  0  0  0  0
   27.1931  -12.9850    0.0000 C   0  0  0  0  0  0  0  0  0  0  0  0
   27.9053  -13.3927    0.0000 C   0  0  0  0  0  0  0  0  0  0  0  0
   27.9102  -14.2140    0.0000 O   0  0  0  0  0  0  0  0  0  0  0  0
   27.2008  -14.6268    0.0000 C   0  0  0  0  0  0  0  0  0  0  0  0
   26.4801  -11.7529    0.0000 O   0  0  0  0  0  0  0  0  0  0  0  0
   26.4777  -10.9316    0.0000 C   0  0  0  0  0  0  0  0  0  0  0  0
   29.3250  -11.7488    0.0000 O   0  0  0  0  0  0  0  0  0  0  0  0
   27.9002  -10.9283    0.0000 C   0  0  0  0  0  0  0  0  0  0  0  0
   28.6116  -10.5147    0.0000 C   0  0  0  0  0  0  0  0  0  0  0  0
   28.6106   -9.6934    0.0000 C   0  0  0  0  0  0  0  0  0  0  0  0
   29.3220   -9.2840    0.0000 C   0  0  0  0  0  0  0  0  0  0  0  0
  1  2  2  0
  2  3  1  0
  3  4  2  0
  4  5  1  0
  5  6  2  0
  6  1  1  0
  7  8  1  0
  7 12  1  0
  8  9  1  0
  9 10  1  0
 10 11  1  0
 11 12  1  0
  4  7  1  0
  2 13  1  0
 13 14  2  0
 14 15  1  0
 15 16  1  0
 15 17  2  0
 16 18  2  0
 18 19  1  0
 19 20  2  0
 20 21  1  0
 21 22  2  0
 22 16  1  0
 22 23  1  0
 23 24  1  0
 20 25  1  0
 25 26  1  0
 18 27  1  0
 19 28  1  0
 28 29  1  0
 29 30  1  0
 30 31  1  0
M  END
>  <Curated_InChIs>  (237) 
InChI=1S/C25H32N2O4/c1-4-5-9-20-22(30-2)17-23(31-3)24(25(20)29)21(28)11-10-18-7-6-8-19(16-18)27-14-12-26-13-15-27/h6-8,10-11,16-17,26,29H,4-5,9,12-15H2,1-3H3

>  <threshold>  (237) 
5

>  <pchembl>  (237) 
5.45

>  <Classification>  (237) 
1

>  <source>  (237) 
chembl_28

>  <SMILES>  (237) 
CCCCc1c(OC)cc(OC)c(C(=O)/C=C/c2cccc(N3CCNCC3)c2)c1O

>  <InChIKey>  (237) 
YGIMGQXXPNYGDY-ZHACJKMWSA-N

$$$$

     RDKit          2D

 24 27  0  0  0  0  0  0  0  0999 V2000
   18.0139  -12.3404    0.0000 C   0  0  0  0  0  0  0  0  0  0  0  0
   18.0128  -13.1599    0.0000 C   0  0  0  0  0  0  0  0  0  0  0  0
   18.7208  -13.5689    0.0000 C   0  0  0  0  0  0  0  0  0  0  0  0
   18.7190  -11.9315    0.0000 C   0  0  0  0  0  0  0  0  0  0  0  0
   19.4277  -12.3368    0.0000 C   0  0  0  0  0  0  0  0  0  0  0  0
   19.4284  -13.1558    0.0000 C   0  0  0  0  0  0  0  0  0  0  0  0
   20.1370  -13.5629    0.0000 N   0  0  0  0  0  0  0  0  0  0  0  0
   20.8452  -13.1520    0.0000 C   0  0  0  0  0  0  0  0  0  0  0  0
   20.8405  -12.3299    0.0000 N   0  0  0  0  0  0  0  0  0  0  0  0
   20.1314  -11.9265    0.0000 C   0  0  0  0  0  0  0  0  0  0  0  0
   21.5587  -13.5550    0.0000 C   0  0  0  0  0  0  0  0  0  0  0  0
   21.6473  -14.3674    0.0000 C   0  0  0  0  0  0  0  0  0  0  0  0
   22.4473  -14.5342    0.0000 C   0  0  0  0  0  0  0  0  0  0  0  0
   22.8531  -13.8248    0.0000 C   0  0  0  0  0  0  0  0  0  0  0  0
   22.3039  -13.2198    0.0000 N   0  0  0  0  0  0  0  0  0  0  0  0
   20.1270  -11.1094    0.0000 N   0  0  0  0  0  0  0  0  0  0  0  0
   20.8326  -10.6970    0.0000 C   0  0  0  0  0  0  0  0  0  0  0  0
   21.5379  -11.1052    0.0000 C   0  0  0  0  0  0  0  0  0  0  0  0
   22.2429  -10.6936    0.0000 C   0  0  0  0  0  0  0  0  0  0  0  0
   22.2390   -9.8755    0.0000 C   0  0  0  0  0  0  0  0  0  0  0  0
   21.5242   -9.4709    0.0000 C   0  0  0  0  0  0  0  0  0  0  0  0
   20.8221   -9.8849    0.0000 C   0  0  0  0  0  0  0  0  0  0  0  0
   22.9440   -9.4622    0.0000 O   0  0  0  0  0  0  0  0  0  0  0  0
   23.6544   -9.8661    0.0000 C   0  0  0  0  0  0  0  0  0  0  0  0
  1  2  2  0
  2  3  1  0
  3  6  2  0
  5  4  2  0
  4  1  1  0
  5  6  1  0
  6  7  1  0
  7  8  2  0
  8  9  1  0
  9 10  2  0
 10  5  1  0
 11 12  2  0
 12 13  1  0
 13 14  2  0
 14 15  1  0
 15 11  1  0
  8 11  1  0
 10 16  1  0
 16 17  1  0
 17 18  2  0
 18 19  1  0
 19 20  2  0
 20 21  1  0
 21 22  2  0
 22 17  1  0
 20 23  1  0
 23 24  1  0
M  END
>  <Curated_InChIs>  (238) 
InChI=1S/C19H16N4O/c1-24-14-10-8-13(9-11-14)21-18-15-5-2-3-6-16(15)22-19(23-18)17-7-4-12-20-17/h2-12,20H,1H3,(H,21,22,23)

>  <threshold>  (238) 
5

>  <pchembl>  (238) 
5.09

>  <Classification>  (238) 
1

>  <source>  (238) 
chembl_28

>  <SMILES>  (238) 
COc1ccc(Nc2nc(-c3ccc[nH]3)nc3ccccc23)cc1

>  <InChIKey>  (238) 
YJHNRAMBIDBLJQ-UHFFFAOYSA-N

$$$$

     RDKit          2D

 30 34  0  0  0  0  0  0  0  0999 V2000
   35.0275   -6.1481    0.0000 C   0  0  0  0  0  0  0  0  0  0  0  0
   35.7372   -5.7387    0.0000 C   0  0  0  0  0  0  0  0  0  0  0  0
   35.7343   -4.9160    0.0000 C   0  0  0  0  0  0  0  0  0  0  0  0
   35.0257   -4.5108    0.0000 C   0  0  0  0  0  0  0  0  0  0  0  0
   34.3195   -5.7392    0.0000 C   0  0  0  0  0  0  0  0  0  0  0  0
   34.3207   -4.9226    0.0000 C   0  0  0  0  0  0  0  0  0  0  0  0
   33.5445   -4.6691    0.0000 S   0  0  0  0  0  0  0  0  0  0  0  0
   33.0635   -5.3290    0.0000 C   0  0  0  0  0  0  0  0  0  0  0  0
   33.5425   -5.9902    0.0000 N   0  0  0  0  0  0  0  0  0  0  0  0
   36.4455   -6.1462    0.0000 N   0  0  0  0  0  0  0  0  0  0  0  0
   37.1526   -5.7365    0.0000 C   0  0  0  0  0  0  0  0  0  0  0  0
   37.8609   -6.1439    0.0000 C   0  0  0  0  0  0  0  0  0  0  0  0
   37.1513   -4.9193    0.0000 O   0  0  0  0  0  0  0  0  0  0  0  0
   37.8582   -6.9592    0.0000 C   0  0  0  0  0  0  0  0  0  0  0  0
   38.5625   -7.3666    0.0000 C   0  0  0  0  0  0  0  0  0  0  0  0
   39.2720   -6.9604    0.0000 C   0  0  0  0  0  0  0  0  0  0  0  0
   39.2726   -6.1422    0.0000 N   0  0  0  0  0  0  0  0  0  0  0  0
   38.5639   -5.7303    0.0000 C   0  0  0  0  0  0  0  0  0  0  0  0
   39.9811   -5.7349    0.0000 C   0  0  0  0  0  0  0  0  0  0  0  0
   40.6854   -6.1472    0.0000 C   0  0  0  0  0  0  0  0  0  0  0  0
   41.3933   -5.7406    0.0000 C   0  0  0  0  0  0  0  0  0  0  0  0
   41.3953   -4.9225    0.0000 N   0  0  0  0  0  0  0  0  0  0  0  0
   40.6833   -4.5128    0.0000 C   0  0  0  0  0  0  0  0  0  0  0  0
   39.9783   -4.9217    0.0000 N   0  0  0  0  0  0  0  0  0  0  0  0
   42.1012   -6.1481    0.0000 N   0  0  0  0  0  0  0  0  0  0  0  0
   42.1847   -6.9610    0.0000 C   0  0  0  0  0  0  0  0  0  0  0  0
   42.9837   -7.1327    0.0000 C   0  0  0  0  0  0  0  0  0  0  0  0
   43.3939   -6.4259    0.0000 C   0  0  0  0  0  0  0  0  0  0  0  0
   42.8485   -5.8175    0.0000 N   0  0  0  0  0  0  0  0  0  0  0  0
   32.2463   -5.3278    0.0000 C   0  0  0  0  0  0  0  0  0  0  0  0
  5  1  2  0
  1  2  1  0
  2  3  2  0
  3  4  1  0
  4  6  2  0
  5  6  1  0
  6  7  1  0
  7  8  1  0
  8  9  2  0
  9  5  1  0
  2 10  1  0
 10 11  1  0
 11 12  1  0
 11 13  2  0
 12 14  1  0
 12 18  1  0
 14 15  1  0
 15 16  1  0
 16 17  1  0
 17 18  1  0
 17 19  1  0
 19 20  2  0
 20 21  1  0
 21 22  2  0
 22 23  1  0
 23 24  2  0
 24 19  1  0
 25 26  1  0
 26 27  2  0
 27 28  1  0
 28 29  2  0
 29 25  1  0
 21 25  1  0
  8 30  1  0
M  END
>  <Curated_InChIs>  (239) 
InChI=1S/C21H21N7OS/c1-14-25-17-10-16(5-6-18(17)30-14)26-21(29)15-4-2-8-27(12-15)19-11-20(23-13-22-19)28-9-3-7-24-28/h3,5-7,9-11,13,15H,2,4,8,12H2,1H3,(H,26,29)

>  <threshold>  (239) 
5

>  <pchembl>  (239) 
5.32

>  <Classification>  (239) 
1

>  <source>  (239) 
chembl_28

>  <SMILES>  (239) 
Cc1nc2cc(NC(=O)C3CCCN(c4cc(-n5cccn5)ncn4)C3)ccc2s1

>  <InChIKey>  (239) 
YVMMSDYPZRTEQW-UHFFFAOYSA-N

$$$$

     RDKit          2D

 40 43  0  0  0  0  0  0  0  0999 V2000
   12.9885  -12.2598    0.0000 C   0  0  0  0  0  0  0  0  0  0  0  0
   12.9885  -13.0894    0.0000 C   0  0  0  0  0  0  0  0  0  0  0  0
   13.7030  -13.5019    0.0000 C   0  0  0  0  0  0  0  0  0  0  0  0
   13.7030  -11.8428    0.0000 C   0  0  0  0  0  0  0  0  0  0  0  0
   14.4220  -12.2598    0.0000 C   0  0  0  0  0  0  0  0  0  0  0  0
   14.4231  -13.0894    0.0000 C   0  0  0  0  0  0  0  0  0  0  0  0
   15.1380  -13.5010    0.0000 C   0  0  0  0  0  0  0  0  0  0  0  0
   15.8565  -13.0875    0.0000 C   0  0  0  0  0  0  0  0  0  0  0  0
   15.8554  -12.2580    0.0000 C   0  0  0  0  0  0  0  0  0  0  0  0
   15.1359  -11.8418    0.0000 C   0  0  0  0  0  0  0  0  0  0  0  0
   13.7018  -11.0178    0.0000 O   0  0  0  0  0  0  0  0  0  0  0  0
   12.9869  -10.6064    0.0000 C   0  0  0  0  0  0  0  0  0  0  0  0
   12.9857   -9.7814    0.0000 O   0  0  0  0  0  0  0  0  0  0  0  0
   12.2731  -11.8491    0.0000 O   0  0  0  0  0  0  0  0  0  0  0  0
   13.6944  -12.6769    0.0000 C   0  0  0  0  0  0  0  0  0  0  0  0
   14.4139  -13.9097    0.0000 O   0  0  0  0  0  0  0  0  0  0  0  0
   15.8484  -13.9097    0.0000 C   0  0  0  0  0  0  0  0  0  0  0  0
   16.0592  -14.7027    0.0000 C   0  0  0  0  0  0  0  0  0  0  0  0
   16.6413  -13.6944    0.0000 C   0  0  0  0  0  0  0  0  0  0  0  0
   14.4139  -11.4348    0.0000 C   0  0  0  0  0  0  0  0  0  0  0  0
   15.1337  -11.0169    0.0000 O   0  0  0  0  0  0  0  0  0  0  0  0
   15.8471  -10.6025    0.0000 C   0  0  0  0  0  0  0  0  0  0  0  0
   15.8449   -9.7775    0.0000 O   0  0  0  0  0  0  0  0  0  0  0  0
   16.5625  -11.0139    0.0000 C   0  0  0  0  0  0  0  0  0  0  0  0
   16.6509  -11.8340    0.0000 C   0  0  0  0  0  0  0  0  0  0  0  0
   17.4584  -12.0034    0.0000 C   0  0  0  0  0  0  0  0  0  0  0  0
   17.8690  -11.2879    0.0000 C   0  0  0  0  0  0  0  0  0  0  0  0
   17.3153  -10.6763    0.0000 O   0  0  0  0  0  0  0  0  0  0  0  0
   15.1379  -14.3259    0.0000 O   0  0  0  0  0  0  0  0  0  0  0  0
   12.2711  -11.0241    0.0000 C   0  0  0  0  0  0  0  0  0  0  0  0
   11.5597  -12.2633    0.0000 C   0  0  0  0  0  0  0  0  0  0  0  0
   10.8443  -11.8525    0.0000 C   0  0  0  0  0  0  0  0  0  0  0  0
   11.5617  -13.0882    0.0000 O   0  0  0  0  0  0  0  0  0  0  0  0
   14.4235  -14.7383    0.0000 C   0  0  0  0  0  0  0  0  0  0  0  0
   14.4234  -15.5633    0.0000 C   0  0  0  0  0  0  0  0  0  0  0  0
   13.1123  -14.0840    0.0000 O   0  0  0  0  0  0  0  0  0  0  0  0
   13.7091  -14.3257    0.0000 O   0  0  0  0  0  0  0  0  0  0  0  0
   14.4184  -16.3846    0.0000 C   0  0  0  0  0  0  0  0  0  0  0  0
   15.2484  -15.5658    0.0000 C   0  0  0  0  0  0  0  0  0  0  0  0
   13.5984  -15.5644    0.0000 C   0  0  0  0  0  0  0  0  0  0  0  0
 17 19  1  0
  7  8  1  0
  8  9  1  1
  5 20  1  6
  9 10  1  0
 10 21  1  1
  5  6  1  0
 21 22  1  0
  4 11  1  6
 22 23  2  0
 24 25  2  0
 11 12  1  0
  1  2  1  0
 12 13  2  0
 12 30  1  0
 25 26  1  0
 26 27  2  0
 27 28  1  0
 28 24  1  0
 22 24  1  0
  1  4  1  0
  7 29  1  1
  1 14  1  6
  2  3  1  0
 14 31  1  0
  3 15  1  1
 31 32  1  0
  3  6  1  0
 31 33  2  0
  6 16  1  1
 29 34  1  0
  5  4  1  0
 34 35  1  0
  8 17  1  0
  3 36  1  0
 16 17  1  0
 34 37  2  0
  5 10  1  0
 35 38  1  0
 17 18  1  0
 35 39  1  0
  6  7  1  0
 35 40  1  0
M  END
>  <Curated_InChIs>  (240) 
InChI=1S/C29H40O11/c1-15(30)36-19-14-27(8,34)29-21(39-24(33)25(3,4)5)17(26(6,7)40-29)13-20(28(29,9)22(19)37-16(2)31)38-23(32)18-11-10-12-35-18/h10-12,17,19-22,34H,13-14H2,1-9H3

>  <threshold>  (240) 
5

>  <pchembl>  (240) 
6.02

>  <Classification>  (240) 
1

>  <source>  (240) 
chembl_28

>  <SMILES>  (240) 
CC(=O)O[C@H]1C[C@@](C)(O)[C@]23OC(C)(C)[C@H](C[C@H](OC(=O)c4ccco4)[C@]2(C)[C@H]1OC(C)=O)[C@H]3OC(=O)C(C)(C)C

>  <InChIKey>  (240) 
ZCCKTWONJLKNEI-FZPDJCEMSA-N

$$$$

     RDKit          2D

 43 48  0  0  0  0  0  0  0  0999 V2000
    5.5252  -15.6203    0.0000 C   0  0  0  0  0  0  0  0  0  0  0  0
    5.8621  -16.3648    0.0000 C   0  0  0  0  0  0  0  0  0  0  0  0
    6.0015  -14.9562    0.0000 O   0  0  0  0  0  0  0  0  0  0  0  0
    6.6753  -16.4453    0.0000 S   0  0  0  0  0  0  0  0  0  0  0  0
    7.0122  -17.1898    0.0000 C   0  0  0  0  0  0  0  0  0  0  0  0
    7.8255  -17.2702    0.0000 C   0  0  0  0  0  0  0  0  0  0  0  0
    8.1624  -18.0147    0.0000 N   0  0  0  0  0  0  0  0  0  0  0  0
    8.3018  -16.6062    0.0000 O   0  0  0  0  0  0  0  0  0  0  0  0
    8.9756  -18.0952    0.0000 C   0  0  0  0  0  0  0  0  0  0  0  0
    9.3882  -18.7967    0.0000 N   0  0  0  0  0  0  0  0  0  0  0  0
   10.1865  -18.6220    0.0000 N   0  0  0  0  0  0  0  0  0  0  0  0
   10.2669  -17.8087    0.0000 C   0  0  0  0  0  0  0  0  0  0  0  0
    9.5184  -17.4810    0.0000 C   0  0  0  0  0  0  0  0  0  0  0  0
   10.9673  -17.3969    0.0000 C   0  0  0  0  0  0  0  0  0  0  0  0
   11.6778  -17.8028    0.0000 C   0  0  0  0  0  0  0  0  0  0  0  0
   12.3825  -17.3905    0.0000 C   0  0  0  0  0  0  0  0  0  0  0  0
   12.3779  -16.5725    0.0000 C   0  0  0  0  0  0  0  0  0  0  0  0
   11.6627  -16.1685    0.0000 C   0  0  0  0  0  0  0  0  0  0  0  0
   10.9609  -16.5830    0.0000 C   0  0  0  0  0  0  0  0  0  0  0  0
    9.0639  -19.5421    0.0000 C   0  0  0  0  0  0  0  0  0  0  0  0
    8.2506  -19.6320    0.0000 C   0  0  0  0  0  0  0  0  0  0  0  0
    7.9234  -20.3800    0.0000 C   0  0  0  0  0  0  0  0  0  0  0  0
    8.4086  -21.0387    0.0000 C   0  0  0  0  0  0  0  0  0  0  0  0
    9.2246  -20.9445    0.0000 C   0  0  0  0  0  0  0  0  0  0  0  0
    9.5480  -20.1963    0.0000 C   0  0  0  0  0  0  0  0  0  0  0  0
   10.2496  -16.1808    0.0000 C   0  0  0  0  0  0  0  0  0  0  0  0
   13.0825  -16.1586    0.0000 C   0  0  0  0  0  0  0  0  0  0  0  0
   13.0925  -17.7951    0.0000 C   0  0  0  0  0  0  0  0  0  0  0  0
    4.7120  -15.5398    0.0000 N   0  0  0  0  0  0  0  0  0  0  0  0
    2.8888  -15.7745    0.0000 C   0  0  0  0  0  0  0  0  0  0  0  0
    2.9619  -14.9625    0.0000 C   0  0  0  0  0  0  0  0  0  0  0  0
    3.6548  -14.5144    0.0000 C   0  0  0  0  0  0  0  0  0  0  0  0
    4.4283  -14.7730    0.0000 C   0  0  0  0  0  0  0  0  0  0  0  0
    5.0370  -14.2328    0.0000 C   0  0  0  0  0  0  0  0  0  0  0  0
    4.8733  -13.4340    0.0000 C   0  0  0  0  0  0  0  0  0  0  0  0
    4.0955  -13.1782    0.0000 C   0  0  0  0  0  0  0  0  0  0  0  0
    3.4902  -13.7201    0.0000 C   0  0  0  0  0  0  0  0  0  0  0  0
    4.2921  -16.2327    0.0000 C   0  0  0  0  0  0  0  0  0  0  0  0
    3.4769  -16.3401    0.0000 C   0  0  0  0  0  0  0  0  0  0  0  0
    3.1639  -17.0984    0.0000 C   0  0  0  0  0  0  0  0  0  0  0  0
    3.6651  -17.7500    0.0000 C   0  0  0  0  0  0  0  0  0  0  0  0
    4.4830  -17.6382    0.0000 C   0  0  0  0  0  0  0  0  0  0  0  0
    4.7922  -16.8798    0.0000 C   0  0  0  0  0  0  0  0  0  0  0  0
  1  2  1  0
  1  3  2  0
  2  4  1  0
  4  5  1  0
  5  6  1  0
  6  7  1  0
  6  8  2  0
  7  9  1  0
  9 10  1  0
 10 11  1  0
 11 12  2  0
 12 13  1  0
 13  9  2  0
 14 15  2  0
 15 16  1  0
 16 17  2  0
 17 18  1  0
 18 19  2  0
 19 14  1  0
 12 14  1  0
 20 21  2  0
 21 22  1  0
 22 23  2  0
 23 24  1  0
 24 25  2  0
 25 20  1  0
 10 20  1  0
 19 26  1  0
 17 27  1  0
 16 28  1  0
  1 29  1  0
 29 38  1  0
 29 33  1  0
 39 30  1  0
 30 31  1  0
 32 31  1  0
 32 33  2  0
 33 34  1  0
 34 35  2  0
 35 36  1  0
 36 37  2  0
 37 32  1  0
 38 39  2  0
 39 40  1  0
 40 41  2  0
 41 42  1  0
 42 43  2  0
 43 38  1  0
M  END
>  <Curated_InChIs>  (241) 
InChI=1S/C36H34N4O2S/c1-24-19-26(3)30(20-25(24)2)31-21-34(40(38-31)29-13-5-4-6-14-29)37-35(41)22-43-23-36(42)39-32-15-9-7-11-27(32)17-18-28-12-8-10-16-33(28)39/h4-16,19-21H,17-18,22-23H2,1-3H3,(H,37,41)

>  <threshold>  (241) 
5

>  <pchembl>  (241) 
7.28, 8.4, 6.79, 8.22

>  <Classification>  (241) 
1

>  <source>  (241) 
chembl_28

>  <SMILES>  (241) 
Cc1cc(C)c(-c2cc(NC(=O)CSCC(=O)N3c4ccccc4CCc4ccccc43)n(-c3ccccc3)n2)cc1C

>  <InChIKey>  (241) 
ZFGJKGPMONGQDN-UHFFFAOYSA-N

$$$$

     RDKit          2D

 42 46  0  0  0  0  0  0  0  0999 V2000
    7.3787  -14.7816    0.0000 C   0  0  0  0  0  0  0  0  0  0  0  0
    8.0952  -14.3682    0.0000 C   0  0  0  0  0  0  0  0  0  0  0  0
    8.0923  -13.5378    0.0000 C   0  0  0  0  0  0  0  0  0  0  0  0
    7.3770  -13.1286    0.0000 C   0  0  0  0  0  0  0  0  0  0  0  0
    6.6640  -14.3687    0.0000 C   0  0  0  0  0  0  0  0  0  0  0  0
    6.6663  -13.5431    0.0000 C   0  0  0  0  0  0  0  0  0  0  0  0
    5.9535  -13.1302    0.0000 C   0  0  0  0  0  0  0  0  0  0  0  0
    5.2382  -13.5416    0.0000 N   0  0  0  0  0  0  0  0  0  0  0  0
    5.2398  -14.3704    0.0000 C   0  0  0  0  0  0  0  0  0  0  0  0
    5.9531  -14.7796    0.0000 C   0  0  0  0  0  0  0  0  0  0  0  0
    4.5236  -13.1293    0.0000 C   0  0  0  0  0  0  0  0  0  0  0  0
    3.8092  -13.5419    0.0000 C   0  0  0  0  0  0  0  0  0  0  0  0
    3.0947  -13.1295    0.0000 N   0  0  0  0  0  0  0  0  0  0  0  0
    8.8052  -13.1226    0.0000 O   0  0  0  0  0  0  0  0  0  0  0  0
    9.5212  -13.5323    0.0000 C   0  0  0  0  0  0  0  0  0  0  0  0
    8.8103  -14.7796    0.0000 O   0  0  0  0  0  0  0  0  0  0  0  0
    8.8115  -15.6046    0.0000 C   0  0  0  0  0  0  0  0  0  0  0  0
    3.0121  -12.3076    0.0000 N   0  0  0  0  0  0  0  0  0  0  0  0
    2.2051  -12.1362    0.0000 N   0  0  0  0  0  0  0  0  0  0  0  0
    1.7927  -12.8507    0.0000 C   0  0  0  0  0  0  0  0  0  0  0  0
    2.3450  -13.4636    0.0000 C   0  0  0  0  0  0  0  0  0  0  0  0
    0.9723  -12.9372    0.0000 C   0  0  0  0  0  0  0  0  0  0  0  0
    0.4872  -12.2699    0.0000 O   0  0  0  0  0  0  0  0  0  0  0  0
   -0.3333  -12.3563    0.0000 C   0  0  0  0  0  0  0  0  0  0  0  0
   -0.8180  -11.6884    0.0000 C   0  0  0  0  0  0  0  0  0  0  0  0
   -1.6399  -11.7744    0.0000 C   0  0  0  0  0  0  0  0  0  0  0  0
   -1.9788  -12.5288    0.0000 C   0  0  0  0  0  0  0  0  0  0  0  0
   -1.4852  -13.1980    0.0000 C   0  0  0  0  0  0  0  0  0  0  0  0
   -0.6699  -13.1086    0.0000 C   0  0  0  0  0  0  0  0  0  0  0  0
   -0.1830  -13.7737    0.0000 N   0  0  0  0  0  0  0  0  0  0  0  0
   -0.5093  -14.5290    0.0000 C   0  0  0  0  0  0  0  0  0  0  0  0
   -0.0224  -15.1941    0.0000 C   0  0  0  0  0  0  0  0  0  0  0  0
   -1.3309  -14.6191    0.0000 O   0  0  0  0  0  0  0  0  0  0  0  0
   -0.3621  -15.9461    0.0000 C   0  0  0  0  0  0  0  0  0  0  0  0
    0.1328  -16.6108    0.0000 C   0  0  0  0  0  0  0  0  0  0  0  0
    0.9537  -16.5211    0.0000 C   0  0  0  0  0  0  0  0  0  0  0  0
    1.2850  -15.7608    0.0000 C   0  0  0  0  0  0  0  0  0  0  0  0
    0.7956  -15.0993    0.0000 C   0  0  0  0  0  0  0  0  0  0  0  0
    1.4426  -17.1856    0.0000 C   0  0  0  0  0  0  0  0  0  0  0  0
    1.1117  -17.9412    0.0000 C   0  0  0  0  0  0  0  0  0  0  0  0
    2.2626  -17.0943    0.0000 C   0  0  0  0  0  0  0  0  0  0  0  0
    1.8500  -17.8955    0.0000 C   0  0  0  0  0  0  0  0  0  0  0  0
  5  1  2  0
  1  2  1  0
  2  3  2  0
  3  4  1  0
  4  6  2  0
  5  6  1  0
  6  7  1  0
  7  8  1  0
  8  9  1  0
  9 10  1  0
 10  5  1  0
  8 11  1  0
 11 12  1  0
 12 13  1  0
  3 14  1  0
 14 15  1  0
  2 16  1  0
 16 17  1  0
 13 18  1  0
 18 19  2  0
 19 20  1  0
 20 21  2  0
 21 13  1  0
 20 22  1  0
 22 23  1  0
 23 24  1  0
 24 25  2  0
 25 26  1  0
 26 27  2  0
 27 28  1  0
 28 29  2  0
 29 24  1  0
 29 30  1  0
 30 31  1  0
 31 32  1  0
 31 33  2  0
 32 34  2  0
 34 35  1  0
 35 36  2  0
 36 37  1  0
 37 38  2  0
 38 32  1  0
 36 39  1  0
 39 40  1  0
 39 41  1  0
 39 42  1  0
M  END
>  <Curated_InChIs>  (242) 
InChI=1S/C33H39N5O4/c1-33(2,3)26-12-10-23(11-13-26)32(39)34-28-8-6-7-9-29(28)42-22-27-21-38(36-35-27)17-16-37-15-14-24-18-30(40-4)31(41-5)19-25(24)20-37/h6-13,18-19,21H,14-17,20,22H2,1-5H3,(H,34,39)

>  <threshold>  (242) 
5

>  <pchembl>  (242) 
5.47

>  <Classification>  (242) 
1

>  <source>  (242) 
chembl_28

>  <SMILES>  (242) 
COc1cc2c(cc1OC)CN(CCn1cc(COc3ccccc3NC(=O)c3ccc(C(C)(C)C)cc3)nn1)CC2

>  <InChIKey>  (242) 
ZFUDOZQPYNMBCQ-UHFFFAOYSA-N

$$$$

     RDKit          2D

 39 43  0  0  0  0  0  0  0  0999 V2000
    8.4842  -25.8704    0.0000 C   0  0  0  0  0  0  0  0  0  0  0  0
    8.4842  -26.6923    0.0000 C   0  0  0  0  0  0  0  0  0  0  0  0
    9.1941  -27.0964    0.0000 C   0  0  0  0  0  0  0  0  0  0  0  0
    9.1941  -25.4525    0.0000 C   0  0  0  0  0  0  0  0  0  0  0  0
    9.9040  -25.8704    0.0000 C   0  0  0  0  0  0  0  0  0  0  0  0
    9.9051  -26.6923    0.0000 C   0  0  0  0  0  0  0  0  0  0  0  0
   10.6110  -27.0955    0.0000 C   0  0  0  0  0  0  0  0  0  0  0  0
   11.3297  -26.6905    0.0000 C   0  0  0  0  0  0  0  0  0  0  0  0
   11.3286  -25.8685    0.0000 C   0  0  0  0  0  0  0  0  0  0  0  0
   10.6065  -25.4522    0.0000 C   0  0  0  0  0  0  0  0  0  0  0  0
    9.8959  -27.5050    0.0000 O   0  0  0  0  0  0  0  0  0  0  0  0
   11.3215  -27.5050    0.0000 C   0  0  0  0  0  0  0  0  0  0  0  0
   12.1063  -27.2867    0.0000 C   0  0  0  0  0  0  0  0  0  0  0  0
   11.7209  -28.2062    0.0000 C   0  0  0  0  0  0  0  0  0  0  0  0
   10.6418  -24.6353    0.0000 O   0  0  0  0  0  0  0  0  0  0  0  0
    9.8959  -25.0531    0.0000 C   0  0  0  0  0  0  0  0  0  0  0  0
    9.1930  -24.6352    0.0000 O   0  0  0  0  0  0  0  0  0  0  0  0
    7.7778  -25.4588    0.0000 O   0  0  0  0  0  0  0  0  0  0  0  0
    7.0688  -25.8739    0.0000 C   0  0  0  0  0  0  0  0  0  0  0  0
    6.3579  -25.4623    0.0000 C   0  0  0  0  0  0  0  0  0  0  0  0
    9.1939  -27.9276    0.0000 O   0  0  0  0  0  0  0  0  0  0  0  0
    7.0697  -26.7052    0.0000 O   0  0  0  0  0  0  0  0  0  0  0  0
    8.4731  -24.2229    0.0000 C   0  0  0  0  0  0  0  0  0  0  0  0
    8.4719  -23.3916    0.0000 C   0  0  0  0  0  0  0  0  0  0  0  0
    9.1965  -22.9743    0.0000 C   0  0  0  0  0  0  0  0  0  0  0  0
    9.1958  -22.1484    0.0000 C   0  0  0  0  0  0  0  0  0  0  0  0
    8.4754  -21.7349    0.0000 C   0  0  0  0  0  0  0  0  0  0  0  0
    7.7543  -22.1520    0.0000 C   0  0  0  0  0  0  0  0  0  0  0  0
    7.7587  -22.9786    0.0000 C   0  0  0  0  0  0  0  0  0  0  0  0
    9.1854  -26.2652    0.0000 C   0  0  0  0  0  0  0  0  0  0  0  0
   11.3784  -24.2536    0.0000 C   0  0  0  0  0  0  0  0  0  0  0  0
   11.4144  -23.4231    0.0000 C   0  0  0  0  0  0  0  0  0  0  0  0
   12.1538  -23.0410    0.0000 C   0  0  0  0  0  0  0  0  0  0  0  0
   12.1901  -22.2113    0.0000 C   0  0  0  0  0  0  0  0  0  0  0  0
   11.4883  -21.7641    0.0000 C   0  0  0  0  0  0  0  0  0  0  0  0
   10.7486  -22.1525    0.0000 C   0  0  0  0  0  0  0  0  0  0  0  0
   10.7159  -22.9809    0.0000 C   0  0  0  0  0  0  0  0  0  0  0  0
    7.7503  -24.6426    0.0000 O   0  0  0  0  0  0  0  0  0  0  0  0
   12.0831  -24.7032    0.0000 O   0  0  0  0  0  0  0  0  0  0  0  0
 18 19  1  0
  7  8  1  0
 19 20  1  0
  8  9  1  1
  3 21  1  0
  9 10  1  0
 19 22  2  0
  5  6  1  0
 17 23  1  0
  6 11  1  1
 23 24  1  0
 24 25  2  0
  8 12  1  0
 25 26  1  0
 11 12  1  0
 26 27  2  0
  1  2  1  0
 27 28  1  0
 12 13  1  0
 28 29  2  0
 29 24  1  0
  1  4  1  0
  3 30  1  1
 12 14  1  0
  2  3  1  0
 15 31  1  0
 10 15  1  1
 31 32  1  0
  3  6  1  0
 32 33  2  0
  5 16  1  6
 33 34  1  0
  5  4  1  0
 34 35  2  0
  4 17  1  6
 35 36  1  0
  5 10  1  0
 36 37  2  0
 37 32  1  0
  1 18  1  1
 23 38  2  0
  6  7  1  0
 31 39  2  0
M  END
>  <Curated_InChIs>  (243) 
InChI=1S/C31H36O8/c1-19(32)36-23-18-29(4,35)31-17-22(28(2,3)39-31)16-24(37-26(33)20-12-8-6-9-13-20)30(31,5)25(23)38-27(34)21-14-10-7-11-15-21/h6-15,22-25,35H,16-18H2,1-5H3

>  <threshold>  (243) 
5

>  <pchembl>  (243) 
5.12

>  <Classification>  (243) 
1

>  <source>  (243) 
chembl_28

>  <SMILES>  (243) 
CC(=O)O[C@@H]1C[C@@](C)(O)[C@@]23C[C@@H](C[C@H](OC(=O)c4ccccc4)[C@]2(C)[C@H]1OC(=O)c1ccccc1)C(C)(C)O3

>  <InChIKey>  (243) 
ZKNFRNMQEHOVJP-XAAUVGDWSA-N

$$$$

     RDKit          2D

 46 50  0  0  0  0  0  0  0  0999 V2000
   -2.5800    0.7500    0.0000 C   0  0  0  0  0  0  0  0  0  0  0  0
   -2.5800    2.2400    0.0000 C   0  0  0  0  0  0  0  0  0  0  0  0
   -1.2900    3.0200    0.0000 C   0  0  0  0  0  0  0  0  0  0  0  0
   -1.2900    0.0100    0.0000 C   0  0  0  0  0  0  0  0  0  0  0  0
    0.0000    0.7400    0.0000 C   0  0  0  0  0  0  0  0  0  0  0  0
    0.0000    2.2900    0.0000 C   0  0  0  0  0  0  0  0  0  0  0  0
    1.3200    1.5200    0.0000 C   0  0  0  0  0  0  0  0  0  0  0  0
    3.2600    1.5200    0.0000 C   0  0  0  0  0  0  0  0  0  0  0  0
    2.5900    0.1900    0.0000 C   0  0  0  0  0  0  0  0  0  0  0  0
    1.1200   -0.1300    0.0000 C   0  0  0  0  0  0  0  0  0  0  0  0
   -1.2961   -1.4911    0.0000 O   0  0  0  0  0  0  0  0  0  0  0  0
   -2.5984   -2.2371    0.0000 C   0  0  0  0  0  0  0  0  0  0  0  0
   -3.6354   -1.6332    0.0000 C   0  0  0  0  0  0  0  0  0  0  0  0
   -2.6025   -3.2371    0.0000 O   0  0  0  0  0  0  0  0  0  0  0  0
    0.2791   -1.3762    0.0000 O   0  0  0  0  0  0  0  0  0  0  0  0
    0.9364   -2.7255    0.0000 C   0  0  0  0  0  0  0  0  0  0  0  0
    0.0974   -3.9699    0.0000 C   0  0  0  0  0  0  0  0  0  0  0  0
    1.9340   -2.7953    0.0000 O   0  0  0  0  0  0  0  0  0  0  0  0
    0.7524   -5.3193    0.0000 C   0  0  0  0  0  0  0  0  0  0  0  0
   -0.0887   -6.5613    0.0000 C   0  0  0  0  0  0  0  0  0  0  0  0
   -1.5848   -6.4539    0.0000 C   0  0  0  0  0  0  0  0  0  0  0  0
   -2.2399   -5.1045    0.0000 C   0  0  0  0  0  0  0  0  0  0  0  0
   -1.3988   -3.8625    0.0000 C   0  0  0  0  0  0  0  0  0  0  0  0
   -0.0872   -0.4568    0.0000 C   0  0  0  0  0  0  0  0  0  0  0  0
    3.5169   -0.9931    0.0000 O   0  0  0  0  0  0  0  0  0  0  0  0
   -0.2456    3.6110    0.0000 C   0  0  0  0  0  0  0  0  0  0  0  0
    1.1200    3.2400    0.0000 O   0  0  0  0  0  0  0  0  0  0  0  0
    2.5900    2.9100    0.0000 C   0  0  0  0  0  0  0  0  0  0  0  0
    1.2773    0.0143    0.0000 O   0  0  0  0  0  0  0  0  0  0  0  0
    3.7711    2.6979    0.0000 C   0  0  0  0  0  0  0  0  0  0  0  0
    2.1162    4.0125    0.0000 C   0  0  0  0  0  0  0  0  0  0  0  0
    5.0029   -0.7830    0.0000 C   0  0  0  0  0  0  0  0  0  0  0  0
    5.9286   -1.9644    0.0000 C   0  0  0  0  0  0  0  0  0  0  0  0
    5.4512    0.3301    0.0000 O   0  0  0  0  0  0  0  0  0  0  0  0
    7.4147   -1.7544    0.0000 C   0  0  0  0  0  0  0  0  0  0  0  0
    8.3403   -2.9357    0.0000 C   0  0  0  0  0  0  0  0  0  0  0  0
    9.8259   -2.7280    0.0000 C   0  0  0  0  0  0  0  0  0  0  0  0
   10.7487   -3.9106    0.0000 C   0  0  0  0  0  0  0  0  0  0  0  0
   10.1859   -5.3010    0.0000 C   0  0  0  0  0  0  0  0  0  0  0  0
    8.7004   -5.5088    0.0000 C   0  0  0  0  0  0  0  0  0  0  0  0
    7.7776   -4.3262    0.0000 C   0  0  0  0  0  0  0  0  0  0  0  0
    2.2105   -1.1611    0.0000 S   0  0  0  0  0  0  0  0  0  0  0  0
    3.3974   -0.9844    0.0000 C   0  0  0  0  0  0  0  0  0  0  0  0
    1.8437   -2.0914    0.0000 O   0  0  0  0  0  0  0  0  0  0  0  0
    2.9571   -2.1005    0.0000 O   0  0  0  0  0  0  0  0  0  0  0  0
   -2.3510    3.5807    0.0000 O   0  0  0  0  0  0  0  0  0  0  0  0
  1  2  1  0
  1  4  1  0
  2  3  1  0
  3  6  1  0
  5  4  1  0
  5  6  1  0
  5 10  1  0
  6  7  1  0
  7  8  1  0
  8  9  1  0
  9 10  1  0
  4 11  1  1
 11 12  1  0
 12 13  1  0
 12 14  2  0
 10 15  1  6
 15 16  1  0
 16 17  1  0
 16 18  2  0
 17 19  2  0
 19 20  1  0
 20 21  2  0
 21 22  1  0
 22 23  2  0
 23 17  1  0
  5 24  1  1
  9 25  1  6
  3 26  1  1
  6 27  1  6
  8 28  1  6
 27 28  1  0
  7 29  1  1
 28 30  1  0
 28 31  1  0
 25 32  1  0
 32 33  1  0
 32 34  2  0
 33 35  2  0
 35 36  1  0
 36 37  2  0
 37 38  1  0
 38 39  2  0
 39 40  1  0
 40 41  2  0
 41 36  1  0
 29 42  1  0
 42 43  1  0
 42 44  2  0
 42 45  2  0
  3 46  1  0
M  END
>  <Curated_InChIs>  (244) 
InChI=1S/C34H40O11S/c1-21(35)41-24-19-20-32(4,38)34-28(44-46(6,39)40)26(31(2,3)45-34)27(42-25(36)18-17-22-13-9-7-10-14-22)29(33(24,34)5)43-30(37)23-15-11-8-12-16-23/h7-18,24,26-29,38H,19-20H2,1-6H3

>  <threshold>  (244) 
5

>  <pchembl>  (244) 
6.22

>  <Classification>  (244) 
1

>  <source>  (244) 
chembl_28

>  <SMILES>  (244) 
CC(=O)O[C@H]1CC[C@](C)(O)[C@]23OC(C)(C)[C@H]([C@H](OC(=O)/C=C/c4ccccc4)[C@H](OC(=O)c4ccccc4)[C@]12C)[C@H]3OS(C)(=O)=O

>  <InChIKey>  (244) 
ZROPMYMQHUXTFW-KOCFDHICSA-N

$$$$
